*SOIL-PLANT-ATMOSPHERE MODULE OUTPUT FILE

*DSSAT Cropping System Model Ver. 4.6.1.000 -release      APR 16, 2018; 14:44:24
                                                                                
*RUN   1        : Sim                       MZCER046 UNME2015    1              
 MODEL          : MZCER046 - Maize                                              
 EXPERIMENT     : UNME2015 MZ                                                   
 DATA PATH      :                                                               
 TREATMENT  1   : Sim                       MZCER046                            
  
!                                                                                                                                                Soil evaporation (mm/d) by soil depth (cm):
!                                                                                                                                                0-5    5-15   15-30   30-45   45-60   60-90  90-120 120-150
@YEAR DOY   DAS   SRAA  TMAXA  TMINA   EOAA   EOPA   EOSA   ETAA   EPAA   ESAA   EFAA   EMAA    EOAC    ETAC    EPAC    ESAC    EFAC    EMAC    ES1D    ES2D    ES3D    ES4D    ES5D    ES6D    ES7D    ES8D    
 2015 091     1  19.60  29.40   9.90  4.910  0.000  4.910  4.910  0.000  4.910  0.000  0.000    4.91    4.91    0.00    4.91    0.00    0.00   1.210   0.819   0.493   0.429   0.419   0.664   0.493   0.382
 2015 092     2  14.50  18.70   6.60  3.162  0.000  3.162  3.162  0.000  3.162  0.000  0.000    8.07    8.07    0.00    8.07    0.00    0.00   0.920   0.604   0.284   0.242   0.236   0.372   0.286   0.217
 2015 093     3  19.40  10.10   0.00  3.463  0.000  3.463  3.463  0.000  3.463  0.000  0.000   11.54   11.54    0.00   11.54    0.00    0.00   0.975   0.672   0.321   0.267   0.261   0.408   0.320   0.241
 2015 094     4  21.20  18.90   0.20  4.343  0.000  4.343  4.343  0.000  4.343  0.000  0.000   15.88   15.88    0.00   15.88    0.00    0.00   1.158   0.845   0.418   0.342   0.334   0.522   0.414   0.310
 2015 095     5  20.90  21.90   4.50  4.633  0.000  4.633  4.633  0.000  4.633  0.000  0.000   20.51   20.51    0.00   20.51    0.00    0.00   1.175   0.902   0.457   0.371   0.364   0.569   0.454   0.339
 2015 096     6   2.80  12.30   9.30  0.564  0.000  0.564  0.564  0.000  0.564  0.000  0.000   21.08   21.08    0.00   21.08    0.00    0.00   0.473   0.066   0.012   0.005   0.003   0.003   0.002   0.001
 2015 097     7   1.90  11.30   5.80  0.363  0.000  0.363  0.363  0.000  0.363  0.000  0.000   21.44   21.44    0.00   21.44    0.00    0.00   0.302   0.044   0.008   0.003   0.002   0.002   0.001   0.001
 2015 098     8   2.00   8.10   4.80  0.359  0.000  0.359  0.359  0.000  0.359  0.000  0.000   21.80   21.80    0.00   21.80    0.00    0.00   0.298   0.044   0.008   0.003   0.002   0.002   0.001   0.001
 2015 099     9   3.80   8.00   0.80  0.650  0.000  0.650  0.650  0.000  0.650  0.000  0.000   22.45   22.45    0.00   22.45    0.00    0.00   0.174   0.125   0.062   0.051   0.050   0.078   0.063   0.047
 2015 100    10  21.70  16.80   3.80  4.497  0.000  4.497  4.497  0.000  4.497  0.000  0.000   26.94   26.94    0.00   26.94    0.00    0.00   1.298   0.852   0.426   0.338   0.333   0.522   0.416   0.312
 2015 101    11  19.40  23.80   3.00  4.372  0.000  4.372  4.372  0.000  4.372  0.000  0.000   31.32   31.32    0.00   31.32    0.00    0.00   1.181   0.838   0.432   0.337   0.332   0.522   0.417   0.313
 2015 102    12  17.60  26.40   8.80  4.292  0.000  4.292  4.292  0.000  4.292  0.000  0.000   35.61   35.61    0.00   35.61    0.00    0.00   1.189   0.860   0.421   0.318   0.315   0.495   0.397   0.297
 2015 103    13  21.40  20.20   2.40  4.581  0.000  4.581  4.581  0.000  4.581  0.000  0.000   40.19   40.19    0.00   40.19    0.00    0.00   1.265   0.935   0.468   0.333   0.330   0.520   0.417   0.313
 2015 104    14  16.30  21.60   2.60  3.544  0.000  3.544  3.544  0.000  3.544  0.000  0.000   43.73   43.73    0.00   43.73    0.00    0.00   0.925   0.715   0.384   0.263   0.261   0.413   0.332   0.249
 2015 105    15  10.90  16.50   4.90  2.245  0.000  2.245  2.245  0.000  2.245  0.000  0.000   45.98   45.98    0.00   45.98    0.00    0.00   0.563   0.452   0.249   0.169   0.169   0.267   0.215   0.161
 2015 106    16  15.80  22.70   8.30  3.634  0.000  3.634  1.211  0.000  1.211  0.000  0.000   49.61   47.19    0.00   47.19    0.00    0.00   0.998   0.149   0.032   0.011   0.007   0.007   0.004   0.002
 2015 107    17  13.60  24.10  12.60  3.292  0.000  3.292  1.132  0.000  1.132  0.000  0.000   52.90   48.32    0.00   48.32    0.00    0.00   0.920   0.148   0.032   0.011   0.007   0.007   0.004   0.002
 2015 108    18   4.50  17.40  12.20  0.993  0.000  0.993  0.993  0.000  0.993  0.000  0.000   53.90   49.31    0.00   49.31    0.00    0.00   0.837   0.109   0.023   0.008   0.005   0.005   0.003   0.002
 2015 109    19   4.30  12.90   6.80  0.863  0.000  0.863  0.863  0.000  0.863  0.000  0.000   54.76   50.18    0.00   50.18    0.00    0.00   0.267   0.168   0.088   0.058   0.058   0.093   0.075   0.056
 2015 110    20  21.60  15.00   3.90  4.390  0.000  4.390  4.390  0.000  4.390  0.000  0.000   59.15   54.57    0.00   54.57    0.00    0.00   1.326   0.885   0.481   0.291   0.291   0.462   0.373   0.281
 2015 111    21  20.10  18.70   1.30  4.169  0.000  4.169  4.169  0.000  4.169  0.000  0.000   63.32   58.74    0.00   58.74    0.00    0.00   1.165   0.830   0.506   0.285   0.285   0.454   0.367   0.277
 2015 112    22  24.20  14.70  -2.30  4.519  0.000  4.519  4.519  0.000  4.519  0.000  0.000   67.84   63.26    0.00   63.26    0.00    0.00   1.196   0.895   0.575   0.315   0.317   0.505   0.408   0.308
 2015 113    23  22.10  19.30  -1.30  4.461  0.000  4.461  1.496  0.000  1.496  0.000  0.000   72.30   64.75    0.00   64.75    0.00    0.00   1.252   0.171   0.041   0.011   0.007   0.007   0.004   0.002
 2015 114    24   8.90  19.80  11.20  2.027  0.000  2.027  1.384  0.000  1.384  0.000  0.000   74.33   66.14    0.00   66.14    0.00    0.00   1.141   0.170   0.041   0.011   0.007   0.007   0.004   0.002
 2015 115    25   5.00  13.30   8.50  1.010  0.000  1.010  1.010  0.000  1.010  0.000  0.000   75.34   67.15    0.00   67.15    0.00    0.00   0.272   0.198   0.128   0.070   0.070   0.112   0.091   0.069
 2015 116    26  23.90  17.00   4.10  5.000  0.000  5.000  5.000  0.000  5.000  0.000  0.000   80.34   72.15    0.00   72.15    0.00    0.00   1.485   0.952   0.627   0.328   0.330   0.528   0.428   0.323
 2015 117    27  24.70  20.70   0.60  5.225  0.000  5.225  5.225  0.000  5.225  0.000  0.000   85.56   77.37    0.00   77.37    0.00    0.00   1.436   1.004   0.694   0.352   0.356   0.571   0.463   0.350
 2015 118    28  23.70  23.60   2.80  5.297  0.000  5.297  1.561  0.000  1.561  0.000  0.000   90.86   78.93    0.00   78.93    0.00    0.00   1.317   0.169   0.043   0.011   0.007   0.007   0.004   0.002
 2015 119    29  23.90  22.60   4.90  5.349  0.000  5.349  1.439  0.000  1.439  0.000  0.000   96.21   80.37    0.00   80.37    0.00    0.00   1.197   0.168   0.043   0.011   0.007   0.007   0.004   0.002
 2015 120    30  24.80  24.20   1.50  5.480  0.000  5.480  1.329  0.000  1.329  0.000  0.000  101.69   81.70    0.00   81.70    0.00    0.00   1.088   0.167   0.043   0.011   0.007   0.007   0.004   0.002
 2015 121    31   8.70  22.90  10.70  2.042  0.000  2.042  1.229  0.000  1.229  0.000  0.000  103.73   82.93    0.00   82.93    0.00    0.00   0.989   0.166   0.043   0.011   0.007   0.007   0.004   0.002
 2015 122    32  19.00  27.60  10.70  4.712  0.000  4.712  1.554  0.000  1.554  0.000  0.000  108.44   84.48    0.00   84.48    0.00    0.00   1.309   0.170   0.043   0.011   0.007   0.007   0.004   0.002
 2015 123    33  13.60  28.50  14.50  3.599  0.000  3.599  3.599  0.000  3.599  0.000  0.000  112.04   88.08    0.00   88.08    0.00    0.00   1.050   0.726   0.494   0.224   0.226   0.362   0.294   0.223
 2015 124    34   3.20  16.70  12.50  0.719  0.000  0.719  0.719  0.000  0.719  0.000  0.000  112.76   88.80    0.00   88.80    0.00    0.00   0.200   0.154   0.108   0.044   0.043   0.070   0.057   0.043
 2015 125    35  13.00  24.40  13.60  3.256  0.000  3.256  3.256  0.000  3.256  0.000  0.000  116.01   92.06    0.00   92.06    0.00    0.00   0.899   0.673   0.508   0.211   0.196   0.316   0.257   0.195
 2015 126    36   6.00  21.10  15.00  1.455  0.000  1.455  1.455  0.000  1.455  0.000  0.000  117.47   93.51    0.00   93.51    0.00    0.00   0.383   0.292   0.237   0.123   0.089   0.136   0.111   0.084
 2015 127    37  18.30  23.90  13.10  4.534  0.000  4.534  4.534  0.000  4.534  0.000  0.000  122.00   98.05    0.00   98.05    0.00    0.00   1.152   0.872   0.744   0.481   0.308   0.407   0.324   0.246
 2015 128    38   6.80  15.30  10.20  1.462  0.000  1.462  1.462  0.000  1.462  0.000  0.000  123.47   99.51    0.00   99.51    0.00    0.00   0.350   0.272   0.234   0.157   0.108   0.143   0.115   0.082
 2015 129    39  13.10  19.80   9.00  2.955  0.000  2.955  2.955  0.000  2.955  0.000  0.000  126.42  102.46    0.00  102.46    0.00    0.00   0.693   0.540   0.464   0.303   0.216   0.306   0.256   0.176
 2015 130    40   8.80  21.70   7.60  2.004  0.000  2.004  2.004  0.000  2.004  0.000  0.000  128.42  104.47    0.00  104.47    0.00    0.00   0.491   0.365   0.306   0.196   0.145   0.205   0.175   0.121
 2015 131    41   7.40  10.60   4.60  1.404  0.000  1.404  1.404  0.000  1.404  0.000  0.000  129.83  105.87    0.00  105.87    0.00    0.00   0.351   0.253   0.209   0.132   0.100   0.145   0.123   0.089
 2015 132    42  24.60  20.90   3.20  5.350  0.000  5.350  5.350  0.000  5.350  0.000  0.000  135.18  111.22    0.00  111.22    0.00    0.00   1.296   0.957   0.799   0.497   0.382   0.566   0.480   0.373
 2015 133    43  21.60  22.60   8.20  4.998  0.007  4.992  4.998  0.007  4.992  0.000  0.000  140.18  116.22    0.01  116.21    0.00    0.00   1.236   0.906   0.733   0.451   0.350   0.521   0.441   0.352
 2015 134    44   7.00  20.30  11.60  1.631  0.004  1.626  1.631  0.004  1.626  0.000  0.000  141.81  117.85    0.01  117.84    0.00    0.00   0.417   0.308   0.238   0.142   0.110   0.164   0.138   0.110
 2015 135    45   6.30  21.00  11.80  1.487  0.006  1.481  1.487  0.006  1.481  0.000  0.000  143.29  119.34    0.02  119.32    0.00    0.00   0.377   0.285   0.227   0.129   0.098   0.145   0.122   0.097
 2015 136    46  13.80  26.60  15.60  3.600  0.020  3.580  3.600  0.020  3.580  0.000  0.000  146.89  122.94    0.04  122.90    0.00    0.00   0.908   0.668   0.560   0.321   0.242   0.352   0.296   0.233
 2015 137    47  20.50  25.60  12.60  5.149  0.042  5.107  5.149  0.042  5.107  0.000  0.000  152.04  128.09    0.08  128.01    0.00    0.00   1.239   0.934   0.791   0.464   0.354   0.523   0.442   0.359
 2015 138    48  24.40  16.90   7.20  5.178  0.056  5.122  5.177  0.056  5.122  0.000  0.000  157.22  133.26    0.13  133.13    0.00    0.00   1.181   0.925   0.792   0.469   0.362   0.543   0.462   0.387
 2015 139    49  10.50  11.00   2.90  1.940  0.023  1.917  1.940  0.023  1.917  0.000  0.000  159.16  135.20    0.16  135.05    0.00    0.00   0.441   0.341   0.293   0.176   0.137   0.206   0.175   0.147
 2015 140    50   5.80  10.80   5.10  1.099  0.012  1.087  1.099  0.012  1.087  0.000  0.000  160.26  136.30    0.17  136.13    0.00    0.00   0.262   0.190   0.163   0.099   0.077   0.116   0.098   0.082
 2015 141    51  26.20  22.20   2.40  5.733  0.062  5.671  5.732  0.062  5.671  0.000  0.000  165.99  142.03    0.23  141.80    0.00    0.00   1.352   0.991   0.848   0.512   0.402   0.612   0.518   0.435
 2015 142    52   8.90  18.50   5.60  1.895  0.020  1.875  1.895  0.020  1.875  0.000  0.000  167.89  143.93    0.25  143.68    0.00    0.00   0.420   0.327   0.285   0.173   0.136   0.208   0.177   0.149
 2015 143    53   3.60  17.00  12.20  0.797  0.009  0.788  0.797  0.009  0.788  0.000  0.000  168.69  144.73    0.26  144.47    0.00    0.00   0.174   0.137   0.120   0.073   0.058   0.088   0.075   0.063
 2015 144    54   6.10  20.80  14.90  1.453  0.019  1.434  1.453  0.019  1.434  0.000  0.000  170.14  146.18    0.28  145.90    0.00    0.00   0.332   0.246   0.215   0.131   0.103   0.158   0.135   0.113
 2015 145    55  18.90  27.10  14.50  4.864  0.077  4.786  4.863  0.077  4.786  0.000  0.000  175.00  151.04    0.36  150.69    0.00    0.00   1.135   0.816   0.711   0.434   0.343   0.524   0.447   0.376
 2015 146    56   9.60  20.70  13.50  2.252  0.062  2.190  1.689  0.062  1.627  0.000  0.000  177.26  152.73    0.42  152.31    0.00    0.00   1.368   0.167   0.053   0.016   0.008   0.008   0.005   0.003
 2015 147    57  23.90  28.90   9.20  5.992  0.216  5.774  1.803  0.216  1.587  0.000  0.000  183.25  154.54    0.64  153.90    0.00    0.00   1.328   0.167   0.052   0.016   0.008   0.008   0.005   0.003
 2015 148    58  10.00  23.20  14.70  2.430  0.120  2.309  1.632  0.120  1.512  0.000  0.000  185.68  156.17    0.76  155.41    0.00    0.00   1.255   0.166   0.052   0.016   0.008   0.008   0.005   0.003
 2015 149    59  15.40  26.50  11.50  3.788  0.233  3.554  1.729  0.233  1.496  0.000  0.000  189.47  157.90    0.99  156.91    0.00    0.00   1.241   0.164   0.052   0.016   0.008   0.008   0.005   0.003
 2015 150    60  17.90  21.70   9.30  4.055  0.304  3.749  1.720  0.304  1.415  0.000  0.000  193.52  159.62    1.29  158.32    0.00    0.00   1.162   0.162   0.052   0.016   0.008   0.008   0.005   0.003
 2015 151    61  17.70  20.20   5.90  3.792  0.322  3.467  1.615  0.322  1.292  0.000  0.000  197.31  161.23    1.61  159.62    0.00    0.00   1.041   0.160   0.052   0.016   0.008   0.008   0.005   0.003
 2015 152    62  25.40  24.60  11.50  6.025  0.558  5.464  1.745  0.558  1.187  0.000  0.000  203.34  162.98    2.17  160.80    0.00    0.00   0.938   0.158   0.052   0.016   0.008   0.008   0.005   0.003
 2015 153    63  14.40  24.00  13.30  3.424  0.368  3.053  1.811  0.368  1.443  0.000  0.000  206.76  164.79    2.54  162.25    0.00    0.00   1.195   0.157   0.051   0.016   0.008   0.008   0.005   0.003
 2015 154    64  17.90  28.60  16.60  4.681  0.576  4.102  4.678  0.576  4.102  0.000  0.000  211.44  169.46    3.12  166.35    0.00    0.00   1.082   0.674   0.574   0.360   0.285   0.437   0.374   0.315
 2015 155    65   5.20  24.00  17.70  1.300  0.194  1.105  1.299  0.194  1.105  0.000  0.000  212.74  170.76    3.31  167.45    0.00    0.00   0.298   0.195   0.150   0.093   0.074   0.114   0.098   0.082
 2015 156    66  22.10  28.70  15.30  5.730  0.922  4.802  5.725  0.922  4.802  0.000  0.000  218.47  176.49    4.23  172.26    0.00    0.00   1.262   0.885   0.665   0.403   0.320   0.492   0.421   0.355
 2015 157    67  15.10  29.40  18.90  4.011  0.761  3.246  4.007  0.761  3.246  0.000  0.000  222.48  180.50    4.99  175.50    0.00    0.00   0.821   0.591   0.461   0.277   0.221   0.340   0.291   0.246
 2015 158    68  23.30  29.30  16.60  6.038  1.345  4.686  6.031  1.345  4.686  0.000  0.000  228.52  186.53    6.34  180.19    0.00    0.00   1.220   0.835   0.662   0.395   0.316   0.487   0.418   0.353
 2015 159    69  26.40  32.00  15.40  6.957  1.783  5.165  6.949  1.783  5.165  0.000  0.000  235.48  193.48    8.12  185.35    0.00    0.00   1.304   0.916   0.735   0.442   0.354   0.547   0.471   0.397
 2015 160    70  26.30  35.50  15.50  7.282  2.144  5.128  3.706  2.144  1.563  0.000  0.000  242.76  197.18   10.27  186.92    0.00    0.00   1.307   0.169   0.049   0.015   0.008   0.008   0.004   0.003
 2015 161    71  23.40  34.40  17.60  6.282  2.128  4.145  6.273  2.128  4.145  0.000  0.000  249.04  203.45   12.39  191.06    0.00    0.00   1.010   0.790   0.588   0.347   0.281   0.435   0.375   0.317
 2015 162    72   2.00  20.40  16.60  0.454  0.174  0.280  0.453  0.174  0.280  0.000  0.000  249.50  203.91   12.57  191.34    0.00    0.00   0.072   0.055   0.043   0.023   0.017   0.027   0.023   0.020
 2015 163    73   6.70  20.00  15.80  1.506  0.589  0.913  1.502  0.589  0.913  0.000  0.000  251.00  205.41   13.16  192.25    0.00    0.00   0.229   0.173   0.147   0.078   0.058   0.090   0.075   0.063
 2015 164    74  16.50  26.00  15.00  3.937  1.635  2.293  3.928  1.635  2.293  0.000  0.000  254.94  209.34   14.79  194.55    0.00    0.00   0.556   0.423   0.362   0.198   0.154   0.238   0.199   0.164
 2015 165    75  14.80  28.60  16.30  3.646  1.632  2.005  3.637  1.632  2.005  0.000  0.000  258.59  212.97   16.42  196.55    0.00    0.00   0.496   0.378   0.308   0.172   0.133   0.204   0.174   0.141
 2015 166    76  14.10  25.00  14.50  3.274  1.585  1.679  3.264  1.585  1.679  0.000  0.000  261.86  216.24   18.01  198.23    0.00    0.00   0.422   0.320   0.260   0.151   0.110   0.164   0.139   0.113
 2015 167    77  26.80  26.70  11.80  6.182  3.176  2.987  6.163  3.176  2.987  0.000  0.000  268.04  222.40   21.18  201.22    0.00    0.00   0.720   0.548   0.471   0.281   0.202   0.301   0.254   0.210
 2015 168    78  24.00  30.70  18.10  6.030  3.288  2.726  6.013  3.288  2.726  0.000  0.000  274.07  228.42   24.47  203.94    0.00    0.00   0.627   0.488   0.426   0.257   0.191   0.288   0.245   0.205
 2015 169    79  12.60  23.90  15.40  2.840  1.665  1.165  2.831  1.665  1.165  0.000  0.000  276.91  231.25   26.14  205.11    0.00    0.00   0.281   0.211   0.176   0.107   0.081   0.121   0.103   0.086
 2015 170    80  26.50  28.70  13.00  6.205  3.808  2.376  6.184  3.808  2.376  0.000  0.000  283.12  237.43   29.94  207.49    0.00    0.00   0.595   0.432   0.347   0.210   0.162   0.246   0.209   0.175
 2015 171    81  19.90  32.20  18.40  5.003  3.235  1.753  4.988  3.235  1.753  0.000  0.000  288.12  242.42   33.18  209.24    0.00    0.00   0.417   0.311   0.259   0.157   0.123   0.189   0.161   0.135
 2015 172    82  19.80  30.50  16.00  4.764  3.255  1.493  4.748  3.255  1.493  0.000  0.000  292.88  247.17   36.43  210.73    0.00    0.00   0.343   0.261   0.221   0.136   0.107   0.166   0.141   0.119
 2015 173    83  21.60  33.80  18.80  5.465  3.903  1.543  5.419  3.903  1.516  0.000  0.000  298.35  252.59   40.34  212.25    0.00    0.00   1.258   0.167   0.051   0.016   0.008   0.008   0.005   0.003
 2015 174    84  17.90  26.50  13.60  3.981  2.997  0.968  3.964  2.997  0.968  0.000  0.000  302.33  256.55   43.33  213.22    0.00    0.00   0.788   0.116   0.036   0.011   0.006   0.006   0.003   0.002
 2015 175    85  18.60  31.10  17.60  4.476  3.474  0.985  4.459  3.474  0.985  0.000  0.000  306.81  261.01   46.81  214.20    0.00    0.00   0.230   0.180   0.138   0.085   0.070   0.110   0.094   0.079
 2015 176    86  16.50  28.20  19.20  3.891  3.127  0.749  3.875  3.127  0.749  0.000  0.000  310.70  264.88   49.93  214.95    0.00    0.00   0.195   0.140   0.101   0.060   0.050   0.079   0.067   0.057
 2015 177    87  21.60  29.00  17.10  5.034  4.162  0.851  5.013  4.162  0.851  0.000  0.000  315.73  269.90   54.10  215.80    0.00    0.00   0.213   0.156   0.119   0.069   0.057   0.092   0.079   0.066
 2015 178    88  25.10  30.50  14.10  5.794  4.903  0.865  5.768  4.903  0.865  0.000  0.000  321.52  275.66   59.00  216.67    0.00    0.00   0.210   0.156   0.122   0.070   0.059   0.096   0.082   0.069
 2015 179    89  23.80  30.90  17.60  5.646  4.873  0.749  5.622  4.873  0.749  0.000  0.000  327.17  281.29   63.87  217.41    0.00    0.00   0.628   0.081   0.023   0.007   0.004   0.004   0.002   0.001
 2015 180    90  21.80  30.80  16.50  5.108  4.493  0.593  5.086  4.493  0.593  0.000  0.000  332.28  286.37   68.36  218.01    0.00    0.00   0.493   0.067   0.019   0.005   0.003   0.003   0.002   0.001
 2015 181    91   7.90  25.80  15.80  1.735  1.549  0.177  1.726  1.549  0.177  0.000  0.000  334.01  288.10   69.91  218.18    0.00    0.00   0.149   0.019   0.005   0.002   0.001   0.001   0.001   0.000
 2015 182    92  23.10  29.50  19.90  5.456  4.907  0.525  5.432  4.907  0.525  0.000  0.000  339.47  293.53   74.82  218.71    0.00    0.00   0.136   0.087   0.068   0.040   0.036   0.061   0.053   0.044
 2015 183    93   7.20  22.10  17.00  1.524  1.388  0.128  1.516  1.388  0.128  0.000  0.000  340.99  295.05   76.21  218.84    0.00    0.00   0.034   0.024   0.017   0.009   0.008   0.014   0.012   0.010
 2015 184    94  25.40  26.00  15.60  5.570  5.098  0.444  5.542  5.098  0.444  0.000  0.000  346.56  300.59   81.31  219.28    0.00    0.00   0.116   0.088   0.063   0.030   0.027   0.047   0.040   0.034
 2015 185    95  24.20  28.00  13.20  5.321  4.927  0.367  5.293  4.927  0.367  0.000  0.000  351.88  305.88   86.23  219.65    0.00    0.00   0.092   0.070   0.054   0.025   0.022   0.040   0.034   0.029
 2015 186    96  17.10  32.60  19.20  4.134  3.863  0.253  4.116  3.863  0.253  0.000  0.000  356.02  310.00   90.10  219.90    0.00    0.00   0.065   0.047   0.037   0.017   0.015   0.028   0.024   0.020
 2015 187    97   4.50  29.10  17.20  1.031  0.968  0.058  1.026  0.968  0.058  0.000  0.000  357.05  311.02   91.06  219.96    0.00    0.00   0.016   0.011   0.008   0.004   0.003   0.006   0.005   0.005
 2015 188    98  27.50  22.40  11.60  5.563  5.219  0.310  5.530  5.219  0.310  0.000  0.000  362.61  316.55   96.28  220.27    0.00    0.00   0.084   0.057   0.044   0.020   0.018   0.033   0.029   0.024
 2015 189    99  22.40  24.20  10.40  4.586  4.316  0.243  4.559  4.316  0.243  0.000  0.000  367.20  321.11  100.60  220.51    0.00    0.00   0.063   0.044   0.035   0.016   0.014   0.027   0.023   0.020
 2015 190   100  20.90  27.50  12.40  4.525  4.273  0.228  4.501  4.273  0.228  0.000  0.000  371.72  325.61  104.87  220.74    0.00    0.00   0.058   0.041   0.032   0.016   0.013   0.026   0.022   0.019
 2015 191   101  15.30  25.90  14.80  3.311  3.136  0.157  3.293  3.136  0.157  0.000  0.000  375.03  328.91  108.01  220.90    0.00    0.00   0.133   0.016   0.005   0.001   0.001   0.001   0.000   0.000
 2015 192   102  23.60  32.60  20.60  5.747  5.462  0.260  5.722  5.462  0.260  0.000  0.000  380.78  334.63  113.47  221.16    0.00    0.00   0.220   0.027   0.008   0.002   0.001   0.001   0.001   0.000
 2015 193   103  24.50  34.30  22.30  6.141  5.856  0.260  6.116  5.856  0.260  0.000  0.000  386.92  340.74  119.33  221.42    0.00    0.00   0.219   0.027   0.008   0.002   0.001   0.001   0.001   0.000
 2015 194   104  23.90  33.80  20.80  5.895  5.637  0.234  5.871  5.637  0.234  0.000  0.000  392.82  346.62  124.96  221.65    0.00    0.00   0.060   0.045   0.031   0.015   0.013   0.026   0.023   0.020
 2015 195   105  22.10  33.50  19.00  5.368  5.143  0.201  5.344  5.143  0.201  0.000  0.000  398.18  351.96  130.11  221.85    0.00    0.00   0.054   0.041   0.028   0.012   0.010   0.021   0.019   0.016
 2015 196   106   8.80  27.00  22.40  2.041  1.958  0.073  2.031  1.958  0.073  0.000  0.000  400.23  353.99  132.06  221.93    0.00    0.00   0.020   0.014   0.010   0.004   0.004   0.007   0.007   0.006
 2015 197   107  21.00  31.60  20.60  5.054  4.852  0.180  5.032  4.852  0.180  0.000  0.000  405.28  359.02  136.92  222.11    0.00    0.00   0.051   0.036   0.025   0.011   0.009   0.018   0.017   0.014
 2015 198   108  24.00  34.80  18.30  5.878  5.651  0.201  5.852  5.651  0.201  0.000  0.000  411.16  364.87  142.57  222.31    0.00    0.00   0.055   0.040   0.028   0.012   0.010   0.020   0.019   0.016
 2015 199   109  22.30  31.10  19.60  5.297  5.100  0.172  5.273  5.100  0.172  0.000  0.000  416.45  370.15  147.67  222.48    0.00    0.00   0.048   0.033   0.024   0.011   0.009   0.017   0.017   0.014
 2015 200   110  20.50  28.90  20.70  4.792  4.620  0.150  4.769  4.620  0.150  0.000  0.000  421.25  374.92  152.29  222.63    0.00    0.00   0.041   0.028   0.021   0.009   0.008   0.015   0.015   0.012
 2015 201   111  21.50  29.40  16.10  4.882  4.710  0.148  4.858  4.710  0.148  0.000  0.000  426.13  379.77  157.00  222.78    0.00    0.00   0.040   0.028   0.020   0.009   0.008   0.015   0.015   0.013
 2015 202   112  20.80  26.80  13.80  4.503  4.338  0.140  4.479  4.338  0.140  0.000  0.000  430.63  384.25  161.34  222.92    0.00    0.00   0.037   0.026   0.019   0.009   0.008   0.014   0.015   0.012
 2015 203   113  18.80  27.20  14.40  4.109  3.955  0.132  4.087  3.955  0.132  0.000  0.000  434.74  388.34  165.29  223.05    0.00    0.00   0.112   0.013   0.004   0.001   0.000   0.001   0.000   0.000
 2015 204   114  21.70  30.50  17.00  5.024  4.834  0.166  4.999  4.834  0.166  0.000  0.000  439.76  393.34  170.12  223.21    0.00    0.00   0.141   0.017   0.005   0.001   0.001   0.001   0.000   0.000
 2015 205   115  22.00  35.30  21.90  5.625  5.411  0.191  5.602  5.411  0.191  0.000  0.000  445.39  398.94  175.54  223.40    0.00    0.00   0.051   0.038   0.026   0.012   0.010   0.018   0.019   0.016
 2015 206   116  11.30  27.20  19.90  2.578  2.476  0.090  2.565  2.476  0.090  0.000  0.000  447.97  401.51  178.01  223.49    0.00    0.00   0.025   0.019   0.012   0.005   0.004   0.008   0.008   0.007
 2015 207   117  21.00  31.70  20.20  5.045  4.843  0.180  5.023  4.843  0.180  0.000  0.000  453.01  406.53  182.85  223.67    0.00    0.00   0.051   0.038   0.026   0.010   0.009   0.015   0.016   0.014
 2015 208   118  15.10  30.80  23.60  3.681  3.531  0.134  3.665  3.531  0.134  0.000  0.000  456.69  410.19  186.39  223.81    0.00    0.00   0.037   0.028   0.021   0.008   0.007   0.012   0.012   0.011
 2015 209   119  12.60  30.70  17.30  2.932  2.809  0.109  2.918  2.809  0.109  0.000  0.000  459.62  413.11  189.19  223.92    0.00    0.00   0.030   0.023   0.017   0.007   0.005   0.009   0.010   0.009
 2015 210   120  18.80  28.70  14.40  4.187  4.006  0.159  4.165  4.006  0.159  0.000  0.000  463.81  417.28  193.20  224.08    0.00    0.00   0.043   0.033   0.025   0.011   0.008   0.013   0.014   0.012
 2015 211   121  23.80  31.10  12.90  5.386  5.149  0.209  5.358  5.149  0.209  0.000  0.000  469.20  422.64  198.35  224.29    0.00    0.00   0.055   0.041   0.033   0.016   0.010   0.018   0.019   0.017
 2015 212   122  17.10  33.00  17.20  4.079  3.899  0.161  4.060  3.899  0.161  0.000  0.000  473.28  426.70  202.25  224.45    0.00    0.00   0.041   0.031   0.025   0.012   0.008   0.014   0.015   0.013
 2015 213   123  11.70  28.60  15.60  2.627  2.507  0.106  2.613  2.507  0.106  0.000  0.000  475.90  429.31  204.76  224.55    0.00    0.00   0.027   0.020   0.016   0.008   0.005   0.010   0.010   0.009
 2015 214   124  21.20  33.90  18.80  5.165  4.930  0.212  5.142  4.930  0.212  0.000  0.000  481.07  434.45  209.69  224.77    0.00    0.00   0.178   0.023   0.007   0.002   0.001   0.001   0.001   0.000
 2015 215   125  16.60  27.60  18.20  3.758  3.583  0.157  3.740  3.583  0.157  0.000  0.000  484.83  438.19  213.27  224.92    0.00    0.00   0.132   0.017   0.005   0.001   0.001   0.001   0.000   0.000
 2015 216   126  12.00  26.80  17.60  2.680  2.553  0.114  2.666  2.553  0.114  0.000  0.000  487.51  440.86  215.82  225.04    0.00    0.00   0.030   0.023   0.018   0.008   0.006   0.010   0.010   0.009
 2015 217   127  10.70  26.40  18.80  2.402  2.287  0.103  2.390  2.287  0.103  0.000  0.000  489.91  443.25  218.11  225.14    0.00    0.00   0.028   0.021   0.017   0.007   0.005   0.008   0.009   0.008
 2015 218   128  10.90  26.20  16.40  2.397  2.279  0.105  2.384  2.279  0.105  0.000  0.000  492.30  445.63  220.39  225.24    0.00    0.00   0.028   0.021   0.017   0.008   0.005   0.009   0.009   0.008
 2015 219   129  20.90  31.80  16.90  4.914  4.673  0.218  4.891  4.673  0.218  0.000  0.000  497.22  450.52  225.06  225.46    0.00    0.00   0.056   0.043   0.035   0.019   0.010   0.019   0.019   0.018
 2015 220   130  18.90  28.70  19.60  4.381  4.163  0.197  4.360  4.163  0.197  0.000  0.000  501.60  454.88  229.22  225.66    0.00    0.00   0.054   0.038   0.031   0.016   0.009   0.016   0.017   0.016
 2015 221   131  15.50  29.90  21.70  3.698  3.513  0.168  3.681  3.513  0.168  0.000  0.000  505.30  458.56  232.74  225.83    0.00    0.00   0.047   0.033   0.026   0.014   0.008   0.013   0.014   0.013
 2015 222   132  20.20  26.80  16.40  4.475  4.245  0.206  4.452  4.245  0.206  0.000  0.000  509.77  463.02  236.98  226.03    0.00    0.00   0.055   0.041   0.033   0.018   0.010   0.017   0.017   0.016
 2015 223   133  21.60  29.00  14.60  4.840  4.589  0.226  4.815  4.589  0.226  0.000  0.000  514.61  467.83  241.57  226.26    0.00    0.00   0.058   0.044   0.036   0.020   0.011   0.019   0.019   0.018
 2015 224   134  21.80  28.80  14.90  4.885  4.629  0.231  4.860  4.629  0.231  0.000  0.000  519.50  472.69  246.20  226.49    0.00    0.00   0.058   0.044   0.037   0.021   0.012   0.020   0.019   0.019
 2015 225   135  20.40  29.60  15.90  4.648  4.403  0.222  4.625  4.403  0.222  0.000  0.000  524.14  477.32  250.60  226.71    0.00    0.00   0.056   0.042   0.035   0.020   0.012   0.019   0.019   0.018
 2015 226   136  20.60  29.80  18.30  4.789  4.535  0.231  4.766  4.535  0.231  0.000  0.000  528.93  482.08  255.14  226.94    0.00    0.00   0.193   0.025   0.007   0.002   0.001   0.001   0.001   0.000
 2015 227   137  21.40  29.20  16.10  4.861  4.600  0.237  4.837  4.600  0.237  0.000  0.000  533.79  486.92  259.74  227.18    0.00    0.00   0.198   0.026   0.008   0.002   0.001   0.001   0.001   0.000
 2015 228   138  15.00  30.20  18.50  3.508  3.319  0.173  3.491  3.319  0.173  0.000  0.000  537.30  490.41  263.06  227.35    0.00    0.00   0.045   0.032   0.026   0.015   0.010   0.015   0.015   0.015
 2015 229   139   3.80  23.20  19.00  0.824  0.779  0.041  0.819  0.779  0.041  0.000  0.000  538.12  491.23  263.84  227.39    0.00    0.00   0.011   0.008   0.006   0.003   0.002   0.003   0.003   0.003
 2015 230   140   8.20  22.10  12.30  1.661  1.567  0.084  1.651  1.567  0.084  0.000  0.000  539.79  492.88  265.40  227.48    0.00    0.00   0.023   0.017   0.014   0.007   0.004   0.006   0.006   0.006
 2015 231   141  19.70  22.70  11.00  3.977  3.749  0.204  3.953  3.749  0.204  0.000  0.000  543.76  496.83  269.15  227.68    0.00    0.00   0.053   0.040   0.034   0.019   0.012   0.016   0.015   0.015
 2015 232   142  20.70  26.80   9.70  4.351  4.098  0.228  4.326  4.098  0.228  0.000  0.000  548.11  501.16  273.25  227.91    0.00    0.00   0.058   0.044   0.037   0.021   0.015   0.018   0.017   0.017
 2015 233   143  19.70  27.10  13.80  4.295  4.043  0.229  4.272  4.043  0.229  0.000  0.000  552.41  505.43  277.29  228.14    0.00    0.00   0.057   0.043   0.037   0.021   0.016   0.019   0.017   0.018
 2015 234   144  13.20  29.40  15.40  2.993  2.814  0.164  2.978  2.814  0.164  0.000  0.000  555.40  508.41  280.11  228.30    0.00    0.00   0.043   0.030   0.026   0.015   0.012   0.014   0.012   0.013
 2015 235   145  22.10  21.90   9.00  4.343  4.070  0.245  4.316  4.070  0.245  0.000  0.000  559.74  512.73  284.18  228.55    0.00    0.00   0.065   0.045   0.038   0.022   0.017   0.021   0.018   0.019
 2015 236   146  21.40  24.70   5.90  4.247  3.971  0.249  4.220  3.971  0.249  0.000  0.000  563.99  516.95  288.15  228.80    0.00    0.00   0.064   0.046   0.039   0.023   0.018   0.021   0.019   0.020
 2015 237   147  19.70  25.00   8.90  4.027  3.758  0.246  4.003  3.758  0.246  0.000  0.000  568.02  520.95  291.91  229.04    0.00    0.00   0.062   0.045   0.038   0.022   0.018   0.021   0.019   0.020
 2015 238   148  17.50  25.50  10.90  3.661  3.407  0.233  3.640  3.407  0.233  0.000  0.000  571.68  524.59  295.31  229.28    0.00    0.00   0.059   0.043   0.036   0.021   0.017   0.021   0.018   0.019
 2015 239   149  14.60  26.80  17.90  3.281  3.045  0.219  3.265  3.045  0.219  0.000  0.000  574.96  527.85  298.36  229.50    0.00    0.00   0.058   0.043   0.034   0.019   0.015   0.018   0.016   0.017
 2015 240   150   6.60  24.80  16.80  1.438  1.330  0.101  1.431  1.330  0.101  0.000  0.000  576.40  529.28  299.69  229.60    0.00    0.00   0.028   0.021   0.016   0.008   0.006   0.008   0.007   0.007
 2015 241   151   9.70  22.00  14.50  2.007  1.846  0.149  1.995  1.846  0.149  0.000  0.000  578.41  531.28  301.53  229.75    0.00    0.00   0.039   0.030   0.024   0.013   0.010   0.012   0.010   0.011
 2015 242   152  10.20  23.90  15.80  2.184  2.001  0.171  2.172  2.001  0.171  0.000  0.000  580.59  533.45  303.54  229.92    0.00    0.00   0.044   0.033   0.027   0.015   0.012   0.014   0.012   0.013
 2015 243   153  18.30  28.60  15.20  4.124  3.762  0.342  4.104  3.762  0.342  0.000  0.000  584.71  537.56  307.30  230.26    0.00    0.00   0.086   0.065   0.054   0.031   0.025   0.030   0.024   0.027
 2015 244   154  16.20  30.50  19.20  3.844  3.491  0.336  3.827  3.491  0.336  0.000  0.000  588.56  541.38  310.79  230.59    0.00    0.00   0.084   0.063   0.053   0.031   0.024   0.030   0.024   0.027
 2015 245   155  18.10  30.60  20.20  4.334  3.915  0.401  4.315  3.915  0.401  0.000  0.000  592.89  545.70  314.70  231.00    0.00    0.00   0.099   0.075   0.063   0.037   0.029   0.036   0.029   0.032
 2015 246   156  18.20  32.20  19.70  4.421  3.970  0.432  4.402  3.970  0.432  0.000  0.000  597.31  550.10  318.67  231.43    0.00    0.00   0.361   0.048   0.014   0.004   0.002   0.002   0.001   0.001
 2015 247   157  14.00  31.30  21.10  3.404  3.038  0.353  3.390  3.038  0.353  0.000  0.000  600.72  553.49  321.71  231.78    0.00    0.00   0.295   0.039   0.012   0.003   0.002   0.001   0.001   0.001
 2015 248   158  15.80  31.50  21.90  3.876  3.435  0.426  3.861  3.435  0.426  0.000  0.000  604.59  557.35  325.15  232.21    0.00    0.00   0.356   0.046   0.014   0.004   0.002   0.002   0.001   0.001
 2015 249   159  15.30  34.70  21.70  3.879  3.412  0.452  3.864  3.412  0.452  0.000  0.000  608.47  561.22  328.56  232.66    0.00    0.00   0.119   0.088   0.067   0.037   0.031   0.040   0.033   0.036
 2015 250   160   5.20  26.60  20.00  1.197  1.044  0.148  1.191  1.044  0.148  0.000  0.000  609.67  562.41  329.60  232.81    0.00    0.00   0.041   0.030   0.022   0.011   0.009   0.012   0.010   0.011
 2015 251   161  12.90  24.80  16.20  2.827  2.443  0.370  2.813  2.443  0.370  0.000  0.000  612.50  565.22  332.04  233.18    0.00    0.00   0.101   0.076   0.061   0.030   0.022   0.029   0.024   0.027
 2015 252   162  15.60  26.20  12.90  3.392  2.898  0.477  3.375  2.898  0.477  0.000  0.000  615.89  568.60  334.94  233.65    0.00    0.00   0.128   0.096   0.082   0.042   0.028   0.037   0.030   0.034
 2015 253   163  14.80  27.10  13.60  3.277  2.768  0.493  3.261  2.768  0.493  0.000  0.000  619.16  571.86  337.71  234.15    0.00    0.00   0.128   0.096   0.082   0.045   0.032   0.041   0.032   0.036
 2015 254   164  18.90  19.70   8.30  3.648  3.035  0.592  3.627  3.035  0.592  0.000  0.000  622.81  575.48  340.74  234.74    0.00    0.00   0.150   0.113   0.096   0.054   0.041   0.053   0.039   0.044
 2015 255   165  18.20  20.80   5.40  3.477  2.859  0.598  3.457  2.859  0.598  0.000  0.000  626.29  578.94  343.60  235.34    0.00    0.00   0.148   0.113   0.096   0.055   0.043   0.057   0.041   0.046
 2015 256   166  17.80  25.20   9.20  3.730  3.032  0.679  3.711  3.032  0.679  0.000  0.000  630.02  582.65  346.64  236.02    0.00    0.00   0.166   0.127   0.108   0.063   0.049   0.066   0.047   0.053
 2015 257   167  15.40  28.00  14.60  3.492  2.803  0.673  3.476  2.803  0.673  0.000  0.000  633.51  586.13  349.44  236.69    0.00    0.00   0.163   0.125   0.107   0.062   0.049   0.066   0.047   0.053
 2015 258   168  16.10  30.60  18.40  3.875  3.068  0.791  3.859  3.068  0.791  0.000  0.000  637.39  589.99  352.51  237.48    0.00    0.00   0.658   0.088   0.027   0.008   0.004   0.003   0.002   0.001
 2015 259   169  14.80  30.40  18.10  3.558  2.736  0.808  3.544  2.736  0.808  0.000  0.000  640.94  593.53  355.24  238.29    0.00    0.00   0.667   0.093   0.029   0.008   0.004   0.004   0.002   0.001
 2015 260   170  13.10  29.70  16.00  3.074  2.364  0.698  3.062  2.364  0.698  0.000  0.000  644.02  596.59  357.61  238.98    0.00    0.00   0.571   0.084   0.026   0.007   0.004   0.003   0.002   0.001
 2015 261   171   7.10  19.10  10.50  1.397  1.073  0.317  1.390  1.073  0.317  0.000  0.000  645.42  597.98  358.68  239.30    0.00    0.00   0.262   0.037   0.011   0.003   0.002   0.001   0.001   0.001
 2015 262   172  17.80  20.20   6.80  3.444  2.643  0.782  3.425  2.643  0.782  0.000  0.000  648.86  601.41  361.32  240.08    0.00    0.00   0.653   0.085   0.026   0.007   0.004   0.003   0.002   0.001
 2015 263   173  16.50  24.40   8.70  3.429  2.634  0.779  3.412  2.634  0.779  0.000  0.000  652.29  604.82  363.96  240.86    0.00    0.00   0.645   0.088   0.027   0.008   0.004   0.004   0.002   0.001
 2015 264   174   9.30  26.30  13.60  2.059  1.582  0.467  2.050  1.582  0.467  0.000  0.000  654.35  606.87  365.54  241.33    0.00    0.00   0.383   0.055   0.017   0.005   0.003   0.002   0.001   0.001
 2015 265   175  11.90  28.90  16.00  2.766  2.126  0.628  2.754  2.126  0.628  0.000  0.000  657.11  609.62  367.67  241.96    0.00    0.00   0.512   0.076   0.024   0.007   0.004   0.003   0.002   0.001
 2015 266   176   3.30  22.70  17.70  0.722  0.555  0.164  0.719  0.555  0.164  0.000  0.000  657.84  610.34  368.22  242.12    0.00    0.00   0.040   0.032   0.027   0.014   0.011   0.015   0.011   0.013
 2015 267   177   3.30  22.60  17.80  0.726  0.558  0.165  0.723  0.558  0.165  0.000  0.000  658.56  611.06  368.78  242.29    0.00    0.00   0.044   0.033   0.028   0.015   0.010   0.014   0.010   0.011
 2015 268   178   9.40  25.70  14.50  2.090  1.606  0.475  2.081  1.606  0.475  0.000  0.000  660.65  613.15  370.38  242.76    0.00    0.00   0.125   0.092   0.079   0.047   0.031   0.039   0.029   0.033
 2015 269   179  15.60  26.50   9.50  3.363  2.583  0.763  3.346  2.583  0.763  0.000  0.000  664.01  616.49  372.97  243.52    0.00    0.00   0.195   0.145   0.124   0.075   0.053   0.070   0.048   0.055
 2015 270   180  15.70  28.20  11.30  3.502  2.691  0.795  3.486  2.691  0.795  0.000  0.000  667.52  619.98  375.66  244.32    0.00    0.00   0.197   0.148   0.127   0.076   0.056   0.081   0.051   0.058
 2015 271   181  13.70  30.60  14.50  3.218  2.475  0.731  3.205  2.475  0.731  0.000  0.000  670.73  623.18  378.13  245.05    0.00    0.00   0.178   0.135   0.115   0.069   0.052   0.079   0.048   0.055
 2015 272   182  14.90  21.60   8.00  2.972  2.282  0.675  2.957  2.282  0.675  0.000  0.000  673.71  626.14  380.42  245.72    0.00    0.00   0.174   0.125   0.103   0.061   0.047   0.072   0.043   0.049
 2015 273   183  15.20  20.20   5.70  2.920  2.241  0.663  2.904  2.241  0.663  0.000  0.000  676.63  629.04  382.66  246.39    0.00    0.00   0.174   0.123   0.099   0.059   0.046   0.071   0.043   0.048
 2015 274   184  13.40  19.00   7.60  2.574  1.976  0.584  2.560  1.976  0.584  0.000  0.000  679.20  631.60  384.63  246.97    0.00    0.00   0.148   0.107   0.088   0.052   0.041   0.064   0.039   0.043
 2015 275   185  14.90  17.80   5.20  2.750  2.110  0.624  2.734  2.110  0.624  0.000  0.000  681.95  634.34  386.74  247.60    0.00    0.00   0.155   0.114   0.095   0.057   0.045   0.069   0.043   0.047
 2015 276   186  11.30  16.00   5.00  2.027  1.554  0.460  2.015  1.554  0.460  0.000  0.000  683.98  636.35  388.30  248.06    0.00    0.00   0.113   0.084   0.070   0.042   0.033   0.051   0.032   0.035
 2015 277   187  13.80  19.30   5.30  2.603  1.997  0.591  2.588  1.997  0.591  0.000  0.000  686.58  638.94  390.29  248.65    0.00    0.00   0.144   0.108   0.090   0.054   0.043   0.066   0.041   0.046
 2015 278   188   4.80  15.50   7.50  0.875  0.672  0.199  0.870  0.672  0.199  0.000  0.000  687.46  639.81  390.96  248.85    0.00    0.00   0.166   0.022   0.006   0.002   0.001   0.001   0.000   0.000
 2015 279   189  11.90  25.00  11.00  2.543  1.953  0.577  2.531  1.953  0.577  0.000  0.000  690.00  642.34  392.92  249.42    0.00    0.00   0.482   0.063   0.019   0.006   0.003   0.003   0.001   0.001
 2015 280   190   8.10  26.10  13.70  1.792  1.377  0.407  1.784  1.377  0.407  0.000  0.000  691.79  644.13  394.30  249.83    0.00    0.00   0.337   0.046   0.014   0.004   0.002   0.002   0.001   0.001
 2015 281   191  11.10  27.60  11.80  2.462  1.892  0.559  2.451  1.892  0.559  0.000  0.000  694.25  646.58  396.19  250.39    0.00    0.00   0.462   0.064   0.019   0.006   0.003   0.003   0.001   0.001
 2015 282   192  12.50  18.50   7.50  2.376  1.823  0.539  2.363  1.823  0.539  0.000  0.000  696.63  648.94  398.01  250.93    0.00    0.00   0.442   0.064   0.019   0.006   0.003   0.003   0.001   0.001
 2015 283   193  12.80  26.00   4.10  2.609  2.003  0.592  2.595  2.003  0.592  0.000  0.000  699.24  651.53  400.01  251.52    0.00    0.00   0.483   0.072   0.022   0.006   0.003   0.003   0.001   0.001
 2015 284   194  13.00  34.20  12.10  3.114  2.394  0.707  3.101  2.394  0.707  0.000  0.000  702.35  654.64  402.41  252.23    0.00    0.00   0.572   0.089   0.027   0.008   0.004   0.004   0.002   0.001
 2015 285   195  13.90  23.80   9.90  2.892  2.221  0.657  2.878  2.221  0.657  0.000  0.000  705.25  657.51  404.63  252.88    0.00    0.00   0.527   0.085   0.026   0.007   0.004   0.004   0.002   0.001
 2015 286   196  13.70  28.00   4.20  2.864  2.199  0.650  2.849  2.199  0.650  0.000  0.000  708.11  660.36  406.83  253.53    0.00    0.00   0.518   0.087   0.026   0.008   0.004   0.004   0.002   0.001
 2015 287   197  13.30  22.20   4.90  2.592  1.989  0.588  2.577  1.989  0.588  0.000  0.000  710.70  662.94  408.82  254.12    0.00    0.00   0.465   0.081   0.025   0.007   0.004   0.004   0.002   0.001
 2015 288   198   8.20  21.30   4.40  1.571  1.205  0.357  1.562  1.205  0.357  0.000  0.000  712.27  664.50  410.02  254.48    0.00    0.00   0.279   0.051   0.015   0.004   0.002   0.003   0.001   0.001
