*MANAGEMENT OPERATIONS DAILY OUTPUT FILE

*DSSAT Cropping System Model Ver. 4.6.1.000 -release      APR 15, 2018; 17:43:28
                                                                                
*RUN   1        : Sim                       MZCER046 UNME2015    1              
 MODEL          : MZCER046 - Maize                                              
 EXPERIMENT     : UNME2015 MZ                                                   
 DATA PATH      :                                                               
 TREATMENT  1   : Sim                       MZCER046                            
  

@YEAR DOY   DAS   DAP  IR#C  IRRC  TL#C  TLDD DLYR3   TLBD  NAPC  NICM  R#AC RESNC RESPC
 2015 091     1     0     0     0     0     0    30  1.370     0     0     0     0     0
 2015 092     2     0     0     0     0     0    30  1.370     0     0     0     0     0
 2015 093     3     0     0     0     0     0    30  1.370     0     0     0     0     0
 2015 094     4     0     0     0     0     0    30  1.370     0     0     0     0     0
 2015 095     5     0     0     0     0     0    30  1.370     0     0     0     0     0
 2015 096     6     0     0     0     0     0    30  1.370     0     0     0     0     0
 2015 097     7     0     0     0     0     0    30  1.370     0     0     0     0     0
 2015 098     8     0     0     0     0     0    30  1.370     0     0     0     0     0
 2015 099     9     0     0     0     0     0    30  1.370     0     0     0     0     0
 2015 100    10     0     0     0     0     0    30  1.370     0     0     0     0     0
 2015 101    11     0     0     0     0     0    30  1.370     0     0     0     0     0
 2015 102    12     0     0     0     0     0    30  1.370     0     0     0     0     0
 2015 103    13     0     0     0     0     0    30  1.370     0     0     0     0     0
 2015 104    14     0     0     0     0     0    30  1.370     0     0     0     0     0
 2015 105    15     0     0     0     1    10    31  1.321     0     0     0     0     0
 2015 106    16     0     0     0     1     0    31  1.321     0     0     0     0     0
 2015 107    17     0     0     0     1     0    31  1.321     0     0     0     0     0
 2015 108    18     0     0     0     1     0    31  1.334     0     0     0     0     0
 2015 109    19     0     0     0     1     0    31  1.347     0     0     0     0     0
 2015 110    20     0     0     0     1     0    31  1.347     0     0     0     0     0
 2015 111    21     0     0     0     1     0    31  1.347     0     0     0     0     0
 2015 112    22     0     0     0     1     0    31  1.347     0     0     0     0     0
 2015 113    23     0     0     0     1     0    31  1.347     0     0     0     0     0
 2015 114    24     0     0     0     1     0    31  1.347     0     0     0     0     0
 2015 115    25     0     0     0     1     0    30  1.354     0     0     0     0     0
 2015 116    26     0     0     0     1     0    30  1.354     0     0     0     0     0
 2015 117    27     0     0     0     1     0    30  1.354     0     0     0     0     0
 2015 118    28     0     0     0     1     0    30  1.354     0     0     0     0     0
 2015 119    29     0     0     0     1     0    30  1.354     0     0     0     0     0
 2015 120    30     0     0     0     1     0    30  1.354     0     0     0     0     0
 2015 121    31     0     0     0     1     0    30  1.354     1   300     1     0     0
 2015 122    32     1     0     0     1     0    30  1.359     1   300     1     0     0
 2015 123    33     2     0     0     1     0    30  1.366     1   300     1     0     0
 2015 124    34     3     0     0     1     0    30  1.367     1   300     1     0     0
 2015 125    35     4     0     0     1     0    30  1.370     1   300     1     0     0
 2015 126    36     5     0     0     1     0    30  1.370     1   300     1     0     0
 2015 127    37     6     0     0     1     0    30  1.370     1   300     1     0     0
 2015 128    38     7     0     0     1     0    30  1.370     1   300     1     0     0
 2015 129    39     8     0     0     1     0    30  1.370     1   300     1     0     0
 2015 130    40     9     0     0     1     0    30  1.370     1   300     1     0     0
 2015 131    41    10     0     0     1     0    30  1.370     1   300     1     0     0
 2015 132    42    11     0     0     1     0    30  1.370     1   300     1     0     0
 2015 133    43    12     0     0     1     0    30  1.370     1   300     1     0     0
 2015 134    44    13     0     0     1     0    30  1.370     1   300     1     0     0
 2015 135    45    14     0     0     1     0    30  1.370     1   300     1     0     0
 2015 136    46    15     0     0     1     0    30  1.370     1   300     1     0     0
 2015 137    47    16     0     0     1     0    30  1.370     1   300     1     0     0
 2015 138    48    17     0     0     1     0    30  1.370     1   300     1     0     0
 2015 139    49    18     0     0     1     0    30  1.370     1   300     1     0     0
 2015 140    50    19     0     0     1     0    30  1.370     1   300     1     0     0
 2015 141    51    20     0     0     1     0    30  1.370     1   300     1     0     0
 2015 142    52    21     0     0     1     0    30  1.370     1   300     1     0     0
 2015 143    53    22     0     0     1     0    30  1.370     1   300     1     0     0
 2015 144    54    23     0     0     1     0    30  1.370     1   300     1     0     0
 2015 145    55    24     0     0     1     0    30  1.370     1   300     1     0     0
 2015 146    56    25     0     0     1     0    30  1.370     1   300     1     0     0
 2015 147    57    26     0     0     1     0    30  1.370     1   300     1     0     0
 2015 148    58    27     0     0     1     0    30  1.370     1   300     1     0     0
 2015 149    59    28     0     0     1     0    30  1.370     1   300     1     0     0
 2015 150    60    29     0     0     1     0    30  1.370     1   300     1     0     0
 2015 151    61    30     0     0     1     0    30  1.370     1   300     1     0     0
 2015 152    62    31     0     0     1     0    30  1.370     1   300     1     0     0
 2015 153    63    32     0     0     1     0    30  1.370     1   300     1     0     0
 2015 154    64    33     0     0     1     0    30  1.370     1   300     1     0     0
 2015 155    65    34     0     0     1     0    30  1.370     1   300     1     0     0
 2015 156    66    35     0     0     1     0    30  1.370     1   300     1     0     0
 2015 157    67    36     0     0     1     0    30  1.370     1   300     1     0     0
 2015 158    68    37     0     0     1     0    30  1.370     1   300     1     0     0
 2015 159    69    38     0     0     1     0    30  1.370     1   300     1     0     0
 2015 160    70    39     0     0     1     0    30  1.370     1   300     1     0     0
 2015 161    71    40     0     0     1     0    30  1.370     1   300     1     0     0
 2015 162    72    41     0     0     1     0    30  1.370     1   300     1     0     0
 2015 163    73    42     0     0     1     0    30  1.370     1   300     1     0     0
 2015 164    74    43     0     0     1     0    30  1.370     1   300     1     0     0
 2015 165    75    44     0     0     1     0    30  1.370     1   300     1     0     0
 2015 166    76    45     0     0     1     0    30  1.370     1   300     1     0     0
 2015 167    77    46     0     0     1     0    30  1.370     1   300     1     0     0
 2015 168    78    47     0     0     1     0    30  1.370     1   300     1     0     0
 2015 169    79    48     0     0     1     0    30  1.370     1   300     1     0     0
 2015 170    80    49     0     0     1     0    30  1.370     1   300     1     0     0
 2015 171    81    50     0     0     1     0    30  1.370     1   300     1     0     0
 2015 172    82    51     0     0     1     0    30  1.370     1   300     1     0     0
 2015 173    83    52     0     0     1     0    30  1.370     1   300     1     0     0
 2015 174    84    53     0     0     1     0    30  1.370     1   300     1     0     0
 2015 175    85    54     0     0     1     0    30  1.370     1   300     1     0     0
 2015 176    86    55     0     0     1     0    30  1.370     1   300     1     0     0
 2015 177    87    56     0     0     1     0    30  1.370     1   300     1     0     0
 2015 178    88    57     0     0     1     0    30  1.370     1   300     1     0     0
 2015 179    89    58     0     0     1     0    30  1.370     1   300     1     0     0
 2015 180    90    59     0     0     1     0    30  1.370     1   300     1     0     0
 2015 181    91    60     0     0     1     0    30  1.370     1   300     1     0     0
 2015 182    92    61     0     0     1     0    30  1.370     1   300     1     0     0
 2015 183    93    62     0     0     1     0    30  1.370     1   300     1     0     0
 2015 184    94    63     0     0     1     0    30  1.370     1   300     1     0     0
 2015 185    95    64     0     0     1     0    30  1.370     1   300     1     0     0
 2015 186    96    65     0     0     1     0    30  1.370     1   300     1     0     0
 2015 187    97    66     0     0     1     0    30  1.370     1   300     1     0     0
 2015 188    98    67     0     0     1     0    30  1.370     1   300     1     0     0
 2015 189    99    68     0     0     1     0    30  1.370     1   300     1     0     0
 2015 190   100    69     0     0     1     0    30  1.370     1   300     1     0     0
 2015 191   101    70     0     0     1     0    30  1.370     1   300     1     0     0
 2015 192   102    71     0     0     1     0    30  1.370     1   300     1     0     0
 2015 193   103    72     0     0     1     0    30  1.370     1   300     1     0     0
 2015 194   104    73     1    25     1     0    30  1.370     1   300     1     0     0
 2015 195   105    74     1    25     1     0    30  1.370     1   300     1     0     0
 2015 196   106    75     1    25     1     0    30  1.370     1   300     1     0     0
 2015 197   107    76     1    25     1     0    30  1.370     1   300     1     0     0
 2015 198   108    77     1    25     1     0    30  1.370     1   300     1     0     0
 2015 199   109    78     1    25     1     0    30  1.370     1   300     1     0     0
 2015 200   110    79     1    25     1     0    30  1.370     1   300     1     0     0
 2015 201   111    80     1    25     1     0    30  1.370     1   300     1     0     0
 2015 202   112    81     1    25     1     0    30  1.370     1   300     1     0     0
 2015 203   113    82     1    25     1     0    30  1.370     1   300     1     0     0
 2015 204   114    83     2    50     1     0    30  1.370     1   300     1     0     0
 2015 205   115    84     2    50     1     0    30  1.370     1   300     1     0     0
 2015 206   116    85     2    50     1     0    30  1.370     1   300     1     0     0
 2015 207   117    86     2    50     1     0    30  1.370     1   300     1     0     0
 2015 208   118    87     2    50     1     0    30  1.370     1   300     1     0     0
 2015 209   119    88     2    50     1     0    30  1.370     1   300     1     0     0
 2015 210   120    89     2    50     1     0    30  1.370     1   300     1     0     0
 2015 211   121    90     2    50     1     0    30  1.370     1   300     1     0     0
 2015 212   122    91     2    50     1     0    30  1.370     1   300     1     0     0
 2015 213   123    92     2    50     1     0    30  1.370     1   300     1     0     0
 2015 214   124    93     2    50     1     0    30  1.370     1   300     1     0     0
 2015 215   125    94     2    50     1     0    30  1.370     1   300     1     0     0
 2015 216   126    95     2    50     1     0    30  1.370     1   300     1     0     0
 2015 217   127    96     2    50     1     0    30  1.370     1   300     1     0     0
 2015 218   128    97     2    50     1     0    30  1.370     1   300     1     0     0
 2015 219   129    98     2    50     1     0    30  1.370     1   300     1     0     0
 2015 220   130    99     2    50     1     0    30  1.370     1   300     1     0     0
 2015 221   131   100     2    50     1     0    30  1.370     1   300     1     0     0
 2015 222   132   101     2    50     1     0    30  1.370     1   300     1     0     0
 2015 223   133   102     2    50     1     0    30  1.370     1   300     1     0     0
 2015 224   134   103     2    50     1     0    30  1.370     1   300     1     0     0
 2015 225   135   104     2    50     1     0    30  1.370     1   300     1     0     0
 2015 226   136   105     2    50     1     0    30  1.370     1   300     1     0     0
 2015 227   137   106     2    50     1     0    30  1.370     1   300     1     0     0
 2015 228   138   107     2    50     1     0    30  1.370     1   300     1     0     0
 2015 229   139   108     2    50     1     0    30  1.370     1   300     1     0     0
 2015 230   140   109     2    50     1     0    30  1.370     1   300     1     0     0
 2015 231   141   110     2    50     1     0    30  1.370     1   300     1     0     0
 2015 232   142   111     2    50     1     0    30  1.370     1   300     1     0     0
 2015 233   143   112     2    50     1     0    30  1.370     1   300     1     0     0
 2015 234   144   113     2    50     1     0    30  1.370     1   300     1     0     0
 2015 235   145   114     2    50     1     0    30  1.370     1   300     1     0     0
 2015 236   146   115     2    50     1     0    30  1.370     1   300     1     0     0
 2015 237   147   116     2    50     1     0    30  1.370     1   300     1     0     0
 2015 238   148   117     2    50     1     0    30  1.370     1   300     1     0     0
 2015 239   149   118     2    50     1     0    30  1.370     1   300     1     0     0
 2015 240   150   119     2    50     1     0    30  1.370     1   300     1     0     0
 2015 241   151   120     2    50     1     0    30  1.370     1   300     1     0     0
 2015 242   152   121     2    50     1     0    30  1.370     1   300     1     0     0
 2015 243   153   122     2    50     1     0    30  1.370     1   300     1     0     0
 2015 244   154   123     2    50     1     0    30  1.370     1   300     1     0     0
 2015 245   155   124     2    50     1     0    30  1.370     1   300     1     0     0
 2015 246   156   125     2    50     1     0    30  1.370     1   300     1     0     0
 2015 247   157   126     2    50     1     0    30  1.370     1   300     1     0     0
 2015 248   158   127     2    50     1     0    30  1.370     1   300     1     0     0
 2015 249   159   128     2    50     1     0    30  1.370     1   300     1     0     0
 2015 250   160   129     2    50     1     0    30  1.370     1   300     1     0     0
 2015 251   161   130     2    50     1     0    30  1.370     1   300     1     0     0
 2015 252   162   131     2    50     1     0    30  1.370     1   300     1     0     0
 2015 253   163   132     2    50     1     0    30  1.370     1   300     1     0     0
 2015 254   164   133     2    50     1     0    30  1.370     1   300     1     0     0
 2015 255   165   134     2    50     1     0    30  1.370     1   300     1     0     0
 2015 256   166   135     2    50     1     0    30  1.370     1   300     1     0     0
 2015 257   167   136     2    50     1     0    30  1.370     1   300     1     0     0
 2015 258   168   137     2    50     1     0    30  1.370     1   300     1     0     0
 2015 259   169   138     2    50     1     0    30  1.370     1   300     1     0     0
 2015 260   170   139     2    50     1     0    30  1.370     1   300     1     0     0
 2015 261   171   140     2    50     1     0    30  1.370     1   300     1     0     0
 2015 262   172   141     2    50     1     0    30  1.370     1   300     1     0     0
 2015 263   173   142     2    50     1     0    30  1.370     1   300     1     0     0
 2015 264   174   143     2    50     1     0    30  1.370     1   300     1     0     0
 2015 265   175   144     2    50     1     0    30  1.370     1   300     1     0     0
 2015 266   176   145     2    50     1     0    30  1.370     1   300     1     0     0
 2015 267   177   146     2    50     1     0    30  1.370     1   300     1     0     0
 2015 268   178   147     2    50     1     0    30  1.370     1   300     1     0     0
 2015 269   179   148     2    50     1     0    30  1.370     1   300     1     0     0
 2015 270   180   149     2    50     1     0    30  1.370     1   300     1     0     0
 2015 271   181   150     2    50     1     0    30  1.370     1   300     1     0     0
 2015 272   182   151     2    50     1     0    30  1.370     1   300     1     0     0
 2015 273   183   152     2    50     1     0    30  1.370     1   300     1     0     0
 2015 274   184   153     2    50     1     0    30  1.370     1   300     1     0     0
 2015 275   185   154     2    50     1     0    30  1.370     1   300     1     0     0
 2015 276   186   155     2    50     1     0    30  1.370     1   300     1     0     0
 2015 277   187   156     2    50     1     0    30  1.370     1   300     1     0     0
 2015 278   188   157     2    50     1     0    30  1.370     1   300     1     0     0
 2015 279   189   158     2    50     1     0    30  1.370     1   300     1     0     0
 2015 280   190   159     2    50     1     0    30  1.370     1   300     1     0     0
 2015 281   191   160     2    50     1     0    30  1.370     1   300     1     0     0
 2015 282   192   161     2    50     1     0    30  1.370     1   300     1     0     0
 2015 283   193   162     2    50     1     0    30  1.370     1   300     1     0     0
 2015 284   194   163     2    50     1     0    30  1.370     1   300     1     0     0
 2015 285   195   164     2    50     1     0    30  1.370     1   300     1     0     0
 2015 286   196   165     2    50     1     0    30  1.370     1   300     1     0     0
 2015 287   197   166     2    50     1     0    30  1.370     1   300     1     0     0
 2015 288   198   167     2    50     1     0    30  1.370     1   300     1     0     0
