*PLANT N OUTPUT FILE

*DSSAT Cropping System Model Ver. 4.6.1.000 -release      APR 15, 2018; 17:43:28
                                                                                
*RUN   1        : Sim                       MZCER046 UNME2015    1              
 MODEL          : MZCER046 - Maize                                              
 EXPERIMENT     : UNME2015 MZ                                                   
 DATA PATH      :                                                               
 TREATMENT  1   : Sim                       MZCER046                            
  
@YEAR DOY   DAS   DAP   CNAD   GNAD   VNAD   GN%D   VN%D   NUPC   LNAD   SNAD   LN%D   SN%D   RN%D   SNN0C   SNN1C
 2015 121    31     0    0.0    0.0    0.0   0.00   0.00    0.0    0.0    0.0    0.0   0.00   0.00    0.00    0.00
 2015 122    32     1    0.0    0.0    0.0   0.00   0.00    0.0    0.0    0.0    0.0   0.00   0.00    0.00    0.00
 2015 123    33     2    0.0    0.0    0.0   0.00   0.00    0.0    0.0    0.0    0.0   0.00   0.00    0.00    0.00
 2015 124    34     3    0.0    0.0    0.0   0.00   0.00    0.0    0.0    0.0    0.0   0.00   0.00    0.00    0.00
 2015 125    35     4    0.0    0.0    0.0   0.00   0.00    0.0    0.0    0.0    0.0   0.00   0.00    0.00    0.00
 2015 126    36     5    0.0    0.0    0.0   0.00   0.00    0.0    0.0    0.0    0.0   0.00   0.00    0.00    0.00
 2015 127    37     6    0.0    0.0    0.0   0.00   0.00    0.0    0.0    0.0    0.0   0.00   0.00    0.00    0.00
 2015 128    38     7    0.0    0.0    0.0   0.00   0.00    0.0    0.0    0.0    0.0   0.00   0.00    0.00    0.00
 2015 129    39     8    0.0    0.0    0.0   0.00   0.00    0.0    0.0    0.0    0.0   0.00   0.00    0.00    0.00
 2015 130    40     9    0.0    0.0    0.0   0.00   0.00    0.0    0.0    0.0    0.0   0.00   0.00    0.00    0.00
 2015 131    41    10    0.0    0.0    0.0   0.00   0.00    0.0    0.0    0.0    0.0   0.00   0.00    0.00    0.00
 2015 132    42    11    1.8    0.0    1.8   0.00   4.40    0.0    0.9    0.9    4.4   4.40   2.19    0.00    0.00
 2015 133    43    12    1.8    0.0    1.8   0.00   4.40    0.0    0.9    0.9    4.4   4.40   2.18    0.00    0.00
 2015 134    44    13    1.8    0.0    1.8   0.00   4.40    0.0    0.9    0.9    4.4   4.40   2.17    0.00    0.00
 2015 135    45    14    1.8    0.0    1.8   0.00   4.40    0.0    0.9    0.9    4.4   4.40   2.15    0.00    0.00
 2015 136    46    15    1.8    0.0    1.8   0.00   4.40    0.0    0.9    0.9    4.4   4.40   2.09    0.00    0.00
 2015 137    47    16    1.8    0.0    1.8   0.00   4.40    0.0    0.9    0.9    4.4   4.40   1.96    0.00    0.00
 2015 138    48    17    1.8    0.0    1.8   0.00   4.40    0.0    0.9    0.9    4.4   4.40   1.81    0.00    0.00
 2015 139    49    18    1.8    0.0    1.8   0.00   4.40    0.0    0.9    0.9    4.4   4.40   1.80    0.00    0.00
 2015 140    50    19    1.8    0.0    1.8   0.00   4.40    0.0    0.9    0.9    4.4   4.40   1.80    0.00    0.00
 2015 141    51    20    1.8    0.0    1.8   0.00   4.40    0.0    0.9    0.9    4.4   4.40   1.63    0.00    0.00
 2015 142    52    21    1.8    0.0    1.8   0.00   4.40    0.0    0.9    0.9    4.4   4.40   1.59    0.00    0.00
 2015 143    53    22    1.8    0.0    1.8   0.00   4.40    0.0    0.9    0.9    4.4   4.40   1.58    0.00    0.00
 2015 144    54    23    1.8    0.0    1.8   0.00   4.40    0.0    0.9    0.9    4.4   4.40   1.55    0.00    0.00
 2015 145    55    24    1.8    0.0    1.8   0.00   4.40    0.0    0.9    0.9    4.4   4.40   1.42    0.00    0.00
 2015 146    56    25    1.8    0.0    1.8   0.00   4.40    0.0    0.9    0.9    4.4   4.40   1.32    0.00    0.00
 2015 147    57    26    1.8    0.0    1.8   0.00   4.06    0.0    0.9    0.8    4.1   4.06   1.12    0.00    0.00
 2015 148    58    27    1.8    0.0    1.8   0.00   3.49    0.0    1.1    0.7    3.5   3.49   1.09    0.00    0.00
 2015 149    59    28    2.0    0.0    2.0   0.00   3.43    0.4    1.3    0.7    3.4   3.43   1.16    0.00    0.00
 2015 150    60    29    2.4    0.0    2.4   0.00   3.59    0.8    1.6    0.7    3.6   3.59   1.24    0.00    0.01
 2015 151    61    30    2.6    0.0    2.6   0.00   3.69    1.2    1.9    0.7    3.7   3.69   1.25    0.00    0.01
 2015 152    62    31    2.8    0.0    2.8   0.00   3.41    1.6    2.1    0.7    3.4   3.41   1.28    0.00    0.01
 2015 153    63    32    3.2    0.0    3.2   0.00   3.41    2.0    2.5    0.7    3.4   3.41   1.16    0.00    0.02
 2015 154    64    33    3.6    0.0    3.6   0.00   3.35    2.6    2.9    0.7    3.3   3.35   1.20    0.00    0.02
 2015 155    65    34    4.2    0.0    4.2   0.00   3.57    3.1    3.5    0.7    3.6   3.57   1.08    0.00    0.03
 2015 156    66    35    4.5    0.0    4.5   0.00   3.18    3.8    3.9    0.6    3.2   3.18   1.24    0.00    0.04
 2015 157    67    36    5.4    0.0    5.4   0.00   3.11    4.7    4.8    0.6    3.1   3.11   1.15    0.00    0.04
 2015 158    68    37    7.9    0.0    7.9   0.00   3.79    7.8    7.1    0.8    3.8   3.79   1.26    0.00    0.05
 2015 159    69    38    9.4    0.0    9.4   0.00   3.75    9.8    8.7    0.7    3.7   3.75   1.28    0.00    0.06
 2015 160    70    39   11.4    0.0   11.4   0.00   3.71   12.3   10.6    0.7    3.7   3.71   1.25    0.00    0.07
 2015 161    71    40   13.4    0.0   13.4   0.00   3.63   14.8   12.7    0.7    3.6   3.63   1.22    0.00    0.09
 2015 162    72    41   13.4    0.0   13.4   0.00   3.50   14.8   12.7    0.7    3.5   3.50   1.23    0.00    0.09
 2015 163    73    42   14.8    0.0   14.8   0.00   3.54   15.9   14.1    0.7    3.5   3.54   1.09    0.00    0.11
 2015 164    74    43   16.5    0.0   16.5   0.00   3.50   18.3   15.8    0.8    3.5   3.50   1.19    0.00    0.12
 2015 165    75    44   18.7    0.0   18.7   0.00   3.46   20.7   17.8    0.8    3.5   3.46   1.15    0.00    0.14
 2015 166    76    45   20.5    0.0   20.5   0.00   3.42   23.0   19.6    0.9    3.4   3.42   1.16    0.00    0.16
 2015 167    77    46   22.7    0.0   22.7   0.00   3.38   26.8   21.6    1.1    3.4   3.38   1.28    0.00    0.18
 2015 168    78    47   25.9    0.0   25.9   0.00   3.34   30.5   24.5    1.4    3.3   3.34   1.20    0.00    0.21
 2015 169    79    48   28.3    0.0   28.3   0.00   3.30   32.8   26.6    1.6    3.3   3.30   1.12    0.00    0.25
 2015 170    80    49   31.4    0.0   31.4   0.00   3.26   37.9   29.4    2.0    3.3   3.26   1.22    0.00    0.28
 2015 171    81    50   35.5    0.0   35.5   0.00   3.22   42.0   32.8    2.7    3.2   3.22   1.14    0.00    0.32
 2015 172    82    51   39.5    0.0   39.5   0.00   3.18   46.8   36.0    3.5    3.2   3.18   1.15    0.00    0.36
 2015 173    83    52   45.7    0.0   45.7   0.00   3.13   53.2   40.8    4.9    3.1   3.13   1.12    0.00    0.41
 2015 174    84    53   49.8    0.0   49.8   0.00   3.10   58.2   43.9    5.9    3.1   3.10   1.13    0.00    0.46
 2015 175    85    54   55.7    0.0   55.7   0.00   3.06   64.2   48.2    7.6    3.1   3.06   1.11    0.00    0.51
 2015 176    86    55   61.6    0.0   61.6   0.00   3.02   70.2   52.2    9.4    3.0   3.02   1.09    0.00    0.56
 2015 177    87    56   67.5    0.0   67.5   0.00   2.98   77.3   56.1   11.4    3.0   2.98   1.14    0.00    0.61
 2015 178    88    57   73.3    0.0   73.3   0.00   2.95   84.6   59.8   13.5    2.9   2.95   1.16    0.00    0.67
 2015 179    89    58   80.1    0.0   80.1   0.00   2.91   91.9   63.9   16.2    2.9   2.91   1.13    0.00    0.73
 2015 180    90    59   86.9    0.0   86.9   0.00   2.87   99.2   67.8   19.1    2.9   2.87   1.11    0.00    0.80
 2015 181    91    60   89.7    0.0   89.7   0.00   2.84  101.5   69.2   20.5    2.8   2.84   1.07    0.00    0.86
 2015 182    92    61   97.5    0.0   97.5   0.00   2.80  110.3   73.3   24.2    2.8   2.80   1.11    0.00    0.93
 2015 183    93    62  100.0    0.0  100.0   0.00   2.78  112.4   74.4   25.5    2.8   2.78   1.07    0.00    1.00
 2015 184    94    63  110.8    0.0  110.8   0.00   2.75  123.6   79.0   31.8    2.7   2.75   1.08    0.00    1.07
 2015 185    95    64  120.5    0.0  120.5   0.00   2.72  133.8   82.7   37.9    2.7   2.72   1.09    0.00    1.14
 2015 186    96    65  126.6    0.0  126.6   0.00   2.68  139.9   84.3   42.3    2.7   2.68   1.08    0.00    1.21
 2015 187    97    66  127.0    0.0  127.0   0.00   2.65  140.2   83.9   43.1    2.6   2.65   1.07    0.00    1.28
 2015 188    98    67  132.7    0.0  132.7   0.00   2.64  148.8   85.6   47.1    2.6   2.64   1.17    0.00    1.35
 2015 189    99    68  137.9    0.0  137.9   0.00   2.62  154.5   87.0   50.9    2.6   2.62   1.13    0.00    1.44
 2015 190   100    69  144.5    0.0  144.5   0.00   2.59  161.1   88.7   55.8    2.6   2.59   1.09    0.00    1.52
 2015 191   101    70  149.5    0.0  149.5   0.00   2.56  166.0   89.7   59.9    2.6   2.56   1.07    0.00    1.61
 2015 192   102    71  157.5    0.0  157.5   0.00   2.53  174.3   91.4   66.1    2.5   2.53   1.08    0.00    1.69
 2015 193   103    72  165.0    0.0  165.0   0.00   2.50  182.0   92.9   72.1    2.5   2.50   1.08    0.00    1.78
 2015 194   104    73  171.7    0.0  171.7   0.00   2.46  189.0   94.3   77.5    2.5   2.46   1.08    0.00    1.87
 2015 195   105    74  177.2    0.0  177.2   0.00   2.43  194.7   95.4   81.8    2.4   2.43   1.08    0.00    1.96
 2015 196   106    75  177.2    0.0  177.2   0.00   2.38  194.7   94.5   82.7    2.4   2.38   1.08    0.00    1.96
 2015 197   107    76  182.6    0.0  182.6   0.00   2.37  200.3   96.3   86.3    2.4   2.37   1.08    0.00    2.04
 2015 198   108    77  187.2    0.0  187.2   0.00   2.35  205.2   98.1   89.1    2.4   2.35   1.08    0.00    2.13
 2015 199   109    78  189.6    0.0  189.6   0.00   2.32  207.9   99.2   90.4    2.3   2.32   1.08    0.00    2.22
 2015 200   110    79  191.0    0.0  191.0   0.00   2.29  209.5  100.0   91.1    2.3   2.29   1.08    0.00    2.32
 2015 201   111    80  193.3    0.0  193.3   0.00   2.29  211.9   98.9   94.4    2.3   2.29   1.08    0.00    2.41
 2015 202   112    81  193.3    0.0  193.3   0.00   2.27  211.9   96.9   96.4    2.3   2.27   1.07    0.00    2.41
 2015 203   113    82  193.3    0.0  193.3   0.00   2.26  211.9   95.1   98.2    2.3   2.26   1.07    0.00    2.41
 2015 204   114    83  193.3    0.0  193.3   0.00   2.25  211.9   93.4   99.9    2.2   2.25   1.06    0.00    2.41
 2015 205   115    84  193.3    0.0  193.3   0.00   2.24  211.9   91.8  101.5    2.2   2.24   1.06    0.00    2.41
 2015 206   116    85  193.3    0.0  193.3   0.00   2.25  211.9   90.6  102.7    2.2   2.25   1.05    0.00    2.41
 2015 207   117    86  193.3    0.0  193.3   0.00   2.25  211.9   89.1  104.2    2.2   2.25   1.05    0.00    2.41
 2015 208   118    87  193.3    0.0  193.3   0.00   2.26  211.9   87.7  105.6    2.3   2.26   1.05    0.00    2.41
 2015 209   119    88  193.3    0.0  193.3   0.00   2.27  211.9   86.4  106.9    2.3   2.27   1.05    0.00    2.41
 2015 210   120    89  193.3    0.0  193.3   0.00   2.28  211.9   84.9  108.4    2.3   2.28   1.04    0.00    2.41
 2015 211   121    90  193.3    0.0  193.3   0.00   2.28  211.9   83.3  110.0    2.3   2.28   1.04    0.00    2.41
 2015 212   122    91  193.3    4.9  188.4   1.71   2.22  211.9   81.2  107.2    2.2   2.22   1.03    0.00    2.41
 2015 213   123    92  193.3    9.7  183.6   1.70   2.18  211.9   79.6  104.0    2.2   2.18   1.04    0.00    2.41
 2015 214   124    93  193.3   14.7  178.6   1.71   2.11  211.9   77.0  101.7    2.1   2.11   1.03    0.00    2.41
 2015 215   125    94  193.3   19.6  173.7   1.71   2.05  211.9   74.9   98.9    2.1   2.05   1.02    0.00    2.41
 2015 216   126    95  193.3   24.4  168.9   1.71   2.01  211.9   73.2   95.7    2.0   2.01   1.03    0.00    2.41
 2015 217   127    96  193.3   29.3  164.0   1.71   1.96  211.9   71.7   92.3    2.0   1.96   1.03    0.00    2.41
 2015 218   128    97  193.3   34.2  159.2   1.71   1.92  211.9   70.2   89.0    1.9   1.92   1.04    0.00    2.41
 2015 219   129    98  193.3   39.0  154.3   1.70   1.85  211.9   67.5   86.8    1.8   1.85   1.03    0.00    2.41
 2015 220   130    99  193.3   43.9  149.4   1.70   1.78  211.9   65.0   84.4    1.8   1.78   1.02    0.00    2.41
 2015 221   131   100  193.3   48.8  144.5   1.71   1.72  211.9   62.8   81.7    1.7   1.72   1.02    0.00    2.41
 2015 222   132   101  193.3   53.7  139.6   1.71   1.65  211.9   60.3   79.4    1.7   1.65   1.01    0.00    2.41
 2015 223   133   102  195.0   58.5  136.5   1.71   1.61  215.3   58.8   77.7    1.6   1.61   1.08    0.00    2.50
 2015 224   134   103  198.2   63.4  134.8   1.70   1.59  218.9   58.1   76.7    1.6   1.59   1.09    0.00    2.60
 2015 225   135   104  200.8   68.3  132.5   1.70   1.56  221.7   57.1   75.4    1.6   1.56   1.08    0.00    2.70
 2015 226   136   105  203.5   73.1  130.4   1.70   1.54  224.8   56.2   74.2    1.5   1.54   1.08    0.00    2.80
 2015 227   137   106  206.5   78.0  128.5   1.70   1.52  228.2   55.4   73.1    1.5   1.52   1.08    0.00    2.91
 2015 228   138   107  208.3   82.8  125.4   1.70   1.48  229.7   54.0   71.4    1.5   1.48   1.07    0.00    3.01
 2015 229   139   108  208.4   87.7  120.7   1.70   1.46  229.8   53.3   67.4    1.5   1.46   1.06    0.00    3.11
 2015 230   140   109  210.4   92.6  117.8   1.70   1.45  231.8   52.9   65.0    1.4   1.45   1.06    0.00    3.22
 2015 231   141   110  214.9   97.4  117.4   1.70   1.43  236.8   52.4   65.1    1.4   1.43   1.08    0.00    3.32
 2015 232   142   111  219.3  102.3  117.0   1.70   1.42  241.6   51.8   65.2    1.4   1.42   1.08    0.00    3.42
 2015 233   143   112  223.4  107.2  116.2   1.70   1.40  245.9   51.1   65.1    1.4   1.40   1.08    0.00    3.53
 2015 234   144   113  226.1  112.0  114.1   1.70   1.38  248.4   50.4   63.7    1.4   1.38   1.06    0.00    3.63
 2015 235   145   114  230.7  116.6  114.1   1.70   1.37  253.8   49.9   64.2    1.4   1.37   1.09    0.00    3.74
 2015 236   146   115  235.3  121.2  114.2   1.70   1.36  258.8   49.4   64.7    1.4   1.36   1.08    0.00    3.85
 2015 237   147   116  240.0  126.0  114.0   1.70   1.35  263.6   49.1   64.9    1.3   1.35   1.08    0.00    3.96
 2015 238   148   117  244.0  130.9  113.1   1.70   1.34  267.6   48.7   64.4    1.3   1.34   1.07    0.00    4.06
 2015 239   149   118  246.8  135.8  111.1   1.70   1.31  270.3   47.9   63.2    1.3   1.31   1.06    0.00    4.17
 2015 240   150   119  248.2  140.6  107.6   1.70   1.30  271.7   47.3   60.3    1.3   1.30   1.06    0.00    4.28
 2015 241   151   120  250.7  145.5  105.2   1.70   1.28  274.2   46.8   58.5    1.3   1.28   1.06    0.00    4.39
 2015 242   152   121  253.2  150.3  102.9   1.70   1.27  276.7   46.2   56.6    1.3   1.27   1.06    0.00    4.49
 2015 243   153   122  257.0  155.2  101.8   1.70   1.25  280.8   45.6   56.2    1.2   1.25   1.07    0.00    4.60
 2015 244   154   123  260.2  160.1  100.1   1.70   1.23  284.0   44.8   55.4    1.2   1.23   1.07    0.00    4.71
 2015 245   155   124  263.7  165.0   98.7   1.70   1.20  287.7   44.0   54.7    1.2   1.20   1.07    0.00    4.81
 2015 246   156   125  267.1  169.9   97.2   1.70   1.18  291.3   43.1   54.0    1.2   1.18   1.07    0.00    4.92
 2015 247   157   126  269.9  174.9   95.1   1.70   1.16  293.9   42.3   52.7    1.2   1.16   1.06    0.00    5.03
 2015 248   158   127  273.1  179.8   93.3   1.70   1.14  297.1   41.5   51.7    1.1   1.14   1.07    0.00    5.13
 2015 249   159   128  275.2  184.1   91.1   1.71   1.11  299.4   40.5   50.6    1.1   1.11   1.07    0.00    5.24
 2015 250   160   129  277.0  189.0   88.0   1.71   1.10  301.2   40.1   48.0    1.1   1.10   1.06    0.00    5.35
 2015 251   161   130  280.1  193.9   86.3   1.71   1.08  304.3   39.5   46.7    1.1   1.08   1.06    0.00    5.45
 2015 252   162   131  283.8  198.7   85.1   1.71   1.07  307.9   39.1   46.0    1.1   1.07   1.06    0.00    5.55
 2015 253   163   132  287.3  203.6   83.7   1.71   1.06  311.4   38.6   45.1    1.1   1.06   1.06    0.00    5.66
 2015 254   164   133  290.6  207.5   83.0   1.71   1.04  315.2   38.1   45.0    1.0   1.04   1.08    0.00    5.76
 2015 255   165   134  293.9  211.0   82.8   1.71   1.03  318.7   37.8   45.1    1.0   1.03   1.08    0.00    5.87
 2015 256   166   135  298.8  215.9   82.9   1.71   1.03  323.4   37.8   45.1    1.0   1.03   1.07    0.00    5.97
 2015 257   167   136  302.1  220.8   81.4   1.71   1.02  326.8   37.2   44.1    1.0   1.02   1.06    0.00    6.08
 2015 258   168   137  305.3  225.6   79.7   1.70   1.00  330.0   36.6   43.1    1.0   1.00   1.06    0.00    6.18
 2015 259   169   138  305.3  225.6   79.7   1.70   1.00  330.0   36.6   43.1    1.0   1.00   1.06    0.00    6.18
 2015 260   170   139  305.3  225.6   79.7   1.70   1.00  330.0   36.6   43.1    1.0   1.00   1.06    0.00    6.18
 2015 261   171   140  305.3  225.6   79.7   1.70   1.00  330.0   36.6   43.1    1.0   1.00   1.06    0.00    6.18
 2015 262   172   141  305.3  225.6   79.7   1.70   1.00  330.0   36.6   43.1    1.0   1.00   1.06    0.00    6.18
 2015 263   173   142  305.3  225.6   79.7   1.70   1.00  330.0   36.6   43.1    1.0   1.00   1.06    0.00    6.18
 2015 264   174   143  305.3  225.6   79.7   1.70   1.00  330.0   36.6   43.1    1.0   1.00   1.06    0.00    6.18
 2015 265   175   144  305.3  225.6   79.7   1.70   1.00  330.0   36.6   43.1    1.0   1.00   1.06    0.00    6.18
 2015 266   176   145  305.3  225.6   79.7   1.70   1.00  330.0   36.6   43.1    1.0   1.00   1.06    0.00    6.18
 2015 267   177   146  305.3  225.6   79.7   1.70   1.00  330.0   36.6   43.1    1.0   1.00   1.06    0.00    6.18
 2015 268   178   147  305.3  225.6   79.7   1.70   1.00  330.0   36.6   43.1    1.0   1.00   1.06    0.00    6.18
 2015 269   179   148  305.3  225.6   79.7   1.70   1.00  330.0   36.6   43.1    1.0   1.00   1.06    0.00    6.18
 2015 270   180   149  305.3  225.6   79.7   1.70   1.00  330.0   36.6   43.1    1.0   1.00   1.06    0.00    6.18
 2015 271   181   150  305.3  225.6   79.7   1.70   1.00  330.0   36.6   43.1    1.0   1.00   1.06    0.00    6.18
 2015 272   182   151  305.3  225.6   79.7   1.70   1.00  330.0   36.6   43.1    1.0   1.00   1.06    0.00    6.18
 2015 273   183   152  305.3  225.6   79.7   1.70   1.00  330.0   36.6   43.1    1.0   1.00   1.06    0.00    6.18
 2015 274   184   153  305.3  225.6   79.7   1.70   1.00  330.0   36.6   43.1    1.0   1.00   1.06    0.00    6.18
 2015 275   185   154  305.3  225.6   79.7   1.70   1.00  330.0   36.6   43.1    1.0   1.00   1.06    0.00    6.18
 2015 276   186   155  305.3  225.6   79.7   1.70   1.00  330.0   36.6   43.1    1.0   1.00   1.06    0.00    6.18
 2015 277   187   156  305.3  225.6   79.7   1.70   1.00  330.0   36.6   43.1    1.0   1.00   1.06    0.00    6.18
 2015 278   188   157  305.3  225.6   79.7   1.70   1.00  330.0   36.6   43.1    1.0   1.00   1.06    0.00    6.18
 2015 279   189   158  305.3  225.6   79.7   1.70   1.00  330.0   36.6   43.1    1.0   1.00   1.06    0.00    6.18
 2015 280   190   159  305.3  225.6   79.7   1.70   1.00  330.0   36.6   43.1    1.0   1.00   1.06    0.00    6.18
 2015 281   191   160  305.3  225.6   79.7   1.70   1.00  330.0   36.6   43.1    1.0   1.00   1.06    0.00    6.18
 2015 282   192   161  305.3  225.6   79.7   1.70   1.00  330.0   36.6   43.1    1.0   1.00   1.06    0.00    6.18
 2015 283   193   162  305.3  225.6   79.7   1.70   1.00  330.0   36.6   43.1    1.0   1.00   1.06    0.00    6.18
 2015 284   194   163  305.3  225.6   79.7   1.70   1.00  330.0   36.6   43.1    1.0   1.00   1.06    0.00    6.18
 2015 285   195   164  305.3  225.6   79.7   1.70   1.00  330.0   36.6   43.1    1.0   1.00   1.06    0.00    6.18
 2015 286   196   165  305.3  225.6   79.7   1.70   1.00  330.0   36.6   43.1    1.0   1.00   1.06    0.00    6.18
 2015 287   197   166  305.3  225.6   79.7   1.70   1.00  330.0   36.6   43.1    1.0   1.00   1.06    0.00    6.18
 2015 288   198   167  305.3  225.6   79.7   1.70   1.00  330.0   36.6   43.1    1.0   1.00   1.06    0.00    6.18
