*Soil Inorganic Nitrogen daily output file

*DSSAT Cropping System Model Ver. 4.6.1.000 -release      APR 16, 2018; 14:44:24
                                                                                
*RUN   1        : Sim                       MZCER046 UNME2015    1              
 MODEL          : MZCER046 - Maize                                              
 EXPERIMENT     : UNME2015 MZ                                                   
 DATA PATH      :                                                               
 TREATMENT  1   : Sim                       MZCER046                            
  
!                                                            NO3 (ppm) by soil depth (cm):                                   NH4 (ppm) by soil depth (cm):
!                                                            0-5    5-15   15-30   30-45   45-60   60-90  90-120 120-150     0-5    5-15   15-30   30-45   45-60   60-90  90-120 120-150
@YEAR DOY   DAS  NAPC  NI#M    NLCC   NIAD   NITD   NHTD    NI1D    NI2D    NI3D    NI4D    NI5D    NI6D    NI7D    NI8D    NH1D    NH2D    NH3D    NH4D    NH5D    NH6D    NH7D    NH8D    NMNC    NITC    NDNC    NIMC    AMLC   NNMNC    NUCM
 2015 090     0     0     0     0.0   20.7   18.6    2.1    0.90    0.90    0.90    0.90    0.90    0.90    0.90    0.90    0.10    0.10    0.10    0.10    0.10    0.10    0.10    0.10    0.00    0.00    0.00    0.00    0.00    0.00    0.00
 2015 091     1     0     0     0.0   21.0   19.0    2.0    0.43    1.15    0.95    0.93    0.91    0.90    0.94    0.92    0.10    0.08    0.08    0.11    0.11    0.10    0.09    0.09    0.35    0.44    0.00    0.00    0.00    0.35    0.00
 2015 092     2     0     0     0.0   21.5   19.5    2.0    0.62    1.16    0.97    0.94    0.92    0.91    0.96    0.93    0.14    0.12    0.07    0.11    0.12    0.11    0.08    0.08    0.79    0.85    0.00    0.00    0.00    0.79    0.00
 2015 093     3     0     0     0.0   21.9   19.9    2.0    0.75    1.17    0.99    0.96    0.95    0.92    0.98    0.94    0.18    0.15    0.06    0.11    0.13    0.11    0.08    0.07    1.21    1.25    0.00    0.00    0.00    1.21    0.00
 2015 094     4     0     0     0.0   22.2   20.2    2.0    0.91    1.18    1.01    0.97    0.97    0.93    0.99    0.95    0.20    0.17    0.06    0.11    0.13    0.11    0.08    0.06    1.56    1.60    0.00    0.00    0.00    1.56    0.00
 2015 095     5     0     0     0.0   22.6   20.6    2.0    1.15    1.21    1.01    0.98    0.99    0.94    1.00    0.95    0.19    0.17    0.06    0.11    0.13    0.11    0.07    0.06    1.88    1.97    0.00    0.00    0.00    1.88    0.00
 2015 096     6     0     0     0.0   22.9   20.9    1.9    1.42    1.24    1.00    0.99    1.00    0.96    1.01    0.96    0.19    0.17    0.05    0.11    0.14    0.11    0.07    0.05    2.18    2.32    0.00    0.00    0.00    2.18    0.00
 2015 097     7     0     0     0.0   23.1   21.2    1.9    1.46    1.27    1.01    1.00    1.02    0.97    1.01    0.96    0.18    0.17    0.05    0.11    0.13    0.10    0.07    0.05    2.41    2.61    0.00    0.00    0.00    2.41    0.00
 2015 098     8     0     0     0.0   23.3   21.5    1.8    1.50    1.30    1.02    1.02    1.04    0.98    1.02    0.97    0.18    0.17    0.05    0.11    0.13    0.10    0.06    0.04    2.59    2.85    0.00    0.00    0.00    2.59    0.00
 2015 099     9     0     0     0.0   23.4   21.7    1.7    1.35    1.40    1.03    1.03    1.06    0.99    1.03    0.97    0.18    0.17    0.05    0.11    0.13    0.10    0.06    0.04    2.76    3.09    0.00    0.00    0.00    2.76    0.00
 2015 100    10     0     0     0.0   23.5   21.9    1.7    1.33    1.40    1.06    1.04    1.07    1.00    1.03    0.97    0.19    0.17    0.05    0.10    0.12    0.09    0.06    0.04    2.87    3.25    0.00    0.00    0.00    2.87    0.00
 2015 101    11     0     0     0.0   23.6   22.0    1.6    1.56    1.41    1.05    1.04    1.07    1.01    1.03    0.97    0.19    0.16    0.05    0.10    0.12    0.09    0.05    0.03    2.96    3.42    0.00    0.00    0.00    2.96    0.00
 2015 102    12     0     0     0.0   23.8   22.2    1.5    1.36    1.56    1.10    1.04    1.08    1.01    1.03    0.97    0.19    0.16    0.04    0.09    0.11    0.08    0.05    0.03    3.09    3.61    0.00    0.00    0.00    3.09    0.00
 2015 103    13     0     0     0.0   24.0   22.4    1.6    1.56    1.51    1.14    1.04    1.08    1.02    1.04    0.97    0.20    0.18    0.05    0.09    0.11    0.08    0.05    0.03    3.30    3.80    0.00    0.00    0.00    3.30    0.00
 2015 104    14     0     0     0.0   24.3   22.6    1.6    1.82    1.48    1.15    1.04    1.09    1.02    1.04    0.97    0.22    0.20    0.05    0.10    0.12    0.08    0.05    0.03    3.58    4.03    0.00    0.00    0.00    3.58    0.00
 2015 105    15     0     0     0.0   24.6   22.9    1.7    2.03    1.51    1.15    1.05    1.11    1.03    1.04    0.98    0.20    0.21    0.06    0.10    0.12    0.09    0.05    0.03    3.93    4.33    0.00    0.00    0.00    3.93    0.00
 2015 106    16     0     0     0.0   24.9   23.3    1.7    2.22    1.55    1.16    1.06    1.13    1.05    1.05    0.98    0.19    0.20    0.06    0.10    0.13    0.09    0.05    0.03    4.27    4.66    0.00    0.00    0.00    4.27    0.00
 2015 107    17     0     0     0.0   25.3   23.6    1.7    2.29    1.59    1.17    1.08    1.15    1.06    1.05    0.98    0.18    0.20    0.06    0.10    0.13    0.09    0.05    0.03    4.60    4.99    0.00    0.00    0.00    4.60    0.00
 2015 108    18     0     0     0.0   25.6   23.9    1.7    2.21    1.70    1.18    1.10    1.17    1.08    1.06    0.98    0.17    0.19    0.06    0.10    0.13    0.09    0.05    0.02    4.92    5.31    0.00    0.00    0.00    4.92    0.00
 2015 109    19     0     0     0.0   25.9   24.2    1.7    1.63    1.94    1.27    1.12    1.20    1.09    1.07    0.99    0.20    0.19    0.07    0.10    0.13    0.09    0.05    0.02    5.23    5.61    0.00    0.00    0.00    5.23    0.00
 2015 110    20     0     0     0.0   26.2   24.4    1.7    1.58    1.86    1.38    1.13    1.22    1.10    1.08    0.99    0.22    0.21    0.07    0.10    0.13    0.09    0.05    0.02    5.51    5.83    0.00    0.00    0.00    5.51    0.00
 2015 111    21     0     0     0.0   26.5   24.7    1.8    1.81    1.80    1.43    1.14    1.23    1.11    1.08    0.99    0.24    0.22    0.08    0.10    0.13    0.09    0.05    0.02    5.80    6.08    0.00    0.00    0.00    5.80    0.00
 2015 112    22     0     0     0.0   26.7   24.9    1.8    2.09    1.77    1.44    1.14    1.24    1.12    1.08    0.99    0.24    0.23    0.08    0.09    0.13    0.09    0.05    0.02    6.07    6.34    0.00    0.00    0.00    6.07    0.00
 2015 113    23     0     0     0.0   27.0   25.2    1.8    2.43    1.78    1.44    1.14    1.25    1.12    1.08    0.99    0.23    0.22    0.09    0.09    0.13    0.09    0.05    0.02    6.29    6.60    0.00    0.00    0.00    6.29    0.00
 2015 114    24     0     0     0.0   27.2   25.5    1.7    2.50    1.81    1.45    1.16    1.26    1.13    1.09    0.99    0.22    0.21    0.09    0.09    0.13    0.09    0.05    0.02    6.51    6.85    0.00    0.00    0.00    6.51    0.00
 2015 115    25     0     0     0.0   27.4   25.7    1.7    2.22    1.98    1.49    1.17    1.28    1.15    1.09    0.99    0.21    0.20    0.10    0.09    0.13    0.09    0.05    0.02    6.77    7.13    0.00    0.00    0.00    6.77    0.00
 2015 116    26     0     0     0.0   27.7   26.0    1.7    2.17    1.96    1.56    1.18    1.30    1.16    1.10    0.99    0.23    0.22    0.10    0.09    0.13    0.09    0.05    0.02    7.02    7.35    0.00    0.00    0.00    7.02    0.00
 2015 117    27     0     0     0.0   27.9   26.2    1.8    2.49    1.94    1.58    1.18    1.31    1.16    1.10    0.99    0.24    0.22    0.10    0.09    0.13    0.09    0.05    0.02    7.28    7.59    0.00    0.00    0.00    7.28    0.00
 2015 118    28     0     0     0.0   28.2   26.5    1.7    2.91    1.93    1.58    1.18    1.31    1.16    1.10    0.99    0.23    0.21    0.11    0.09    0.13    0.09    0.05    0.02    7.56    7.88    0.00    0.00    0.00    7.56    0.00
 2015 119    29     0     0     0.0   28.5   26.8    1.7    2.99    1.97    1.60    1.19    1.33    1.18    1.10    0.99    0.22    0.21    0.11    0.09    0.13    0.09    0.05    0.02    7.87    8.19    0.00    0.00    0.00    7.87    0.00
 2015 120    30     0     0     0.0   28.9   27.1    1.7    3.07    2.00    1.62    1.21    1.36    1.19    1.11    0.99    0.21    0.20    0.12    0.08    0.13    0.09    0.05    0.02    8.20    8.52    0.00    0.00    0.00    8.20    0.00
 2015 121    31   150     1     0.0  179.1   28.1  151.0    3.97    2.05    1.65    1.23    1.38    1.21    1.12    1.00  218.13    0.19    0.12    0.08    0.14    0.09    0.05    0.02    8.58    8.89    0.00    0.00    0.16    8.58    0.00
 2015 122    32   150     1     0.0  179.3   73.3  106.0   69.08    2.33    1.68    1.25    1.41    1.23    1.12    1.00  152.37    0.19    0.13    0.08    0.14    0.09    0.05    0.02    8.98   53.51    0.00    0.00    0.31    8.98    0.00
 2015 123    33   150     1     0.0  179.7   83.9   95.8   53.86   15.10    3.23    1.30    1.44    1.24    1.13    1.00  137.35    0.21    0.13    0.08    0.14    0.10    0.05    0.02    9.43   63.89    0.00    0.00    0.45    9.43    0.00
 2015 124    34   150     1     0.0  180.0   91.7   88.2   58.41   17.01    4.09    1.41    1.46    1.26    1.14    1.00  126.16    0.24    0.15    0.09    0.14    0.10    0.05    0.02    9.91   71.68    0.00    0.00    0.62    9.91    0.00
 2015 125    35   150     1     0.0  180.4   98.1   82.3   64.55   17.38    4.64    1.55    1.49    1.28    1.15    1.01  117.34    0.28    0.18    0.09    0.14    0.10    0.05    0.02   10.37   77.95    0.00    0.00    0.68   10.37    0.00
 2015 126    36   150     1     0.0  180.7  107.0   73.7   40.39   20.93   10.58    5.05    2.03    1.29    1.15    1.01  104.66    0.30    0.20    0.09    0.14    0.10    0.05    0.02   10.84   86.77    0.00    0.00    0.83   10.84    0.00
 2015 127    37   150     1     0.0  180.7  112.3   68.5   29.66   20.66   13.00    7.35    3.36    1.42    1.16    1.01   96.77    0.33    0.23    0.12    0.14    0.10    0.05    0.02   11.31   92.37    0.36    0.00    0.90   11.31    0.00
 2015 128    38   150     1     0.0  180.6  118.6   62.0   41.08   19.07   12.37    7.12    3.67    1.71    1.32    1.01   87.15    0.35    0.26    0.14    0.16    0.10    0.05    0.02   11.78   99.06    0.76    0.00    1.07   11.78    0.00
 2015 129    39   150     1     0.0  180.7  125.3   55.4   50.96   18.45   12.03    6.96    3.88    1.87    1.42    1.07   77.35    0.36    0.27    0.16    0.16    0.10    0.05    0.02   12.19  105.97    1.00    0.00    1.13   12.19    0.00
 2015 130    40   150     1     0.0  180.9  133.3   47.6   55.54   21.32   12.16    6.91    4.07    1.94    1.44    1.08   65.90    0.37    0.28    0.17    0.17    0.10    0.05    0.02   12.61  114.00    1.11    0.00    1.25   12.61    0.00
 2015 131    41   150     1     0.0  180.9  136.0   44.9   58.55   20.90   12.10    6.87    4.21    2.07    1.49    1.17   61.80    0.38    0.29    0.17    0.17    0.10    0.05    0.02   13.01  117.06    1.48    0.00    1.32   13.01    0.00
 2015 132    42   150     1     0.0  180.9  139.5   41.4   63.05   20.67   12.05    6.82    4.29    2.16    1.53    1.23   56.68    0.38    0.30    0.18    0.17    0.10    0.05    0.02   13.35  120.81    1.70    0.00    1.38   13.35    0.00
 2015 133    43   150     1     0.0  181.2  147.6   33.6   64.23   25.45   12.41    6.74    4.29    2.19    1.53    1.23   45.35    0.37    0.30    0.18    0.17    0.10    0.05    0.02   13.66  128.86    1.73    0.00    1.41   13.66    0.00
 2015 134    44   150     1     0.0  181.4  150.1   31.4   52.49   29.67   14.41    6.97    4.33    2.21    1.53    1.23   42.03    0.38    0.30    0.18    0.17    0.10    0.05    0.02   14.02  131.46    1.85    0.00    1.43   14.02    0.00
 2015 135    45   150     1     0.0  181.5  151.6   29.9   40.99   30.53   17.28    7.78    4.53    2.26    1.55    1.23   39.80    0.39    0.30    0.18    0.17    0.11    0.05    0.02   14.38  133.30    2.14    0.00    1.43   14.38    0.00
 2015 136    46   150     1     0.0  181.4  152.9   28.5   41.71   29.68   17.32    8.30    4.77    2.32    1.57    1.23   37.71    0.41    0.32    0.18    0.17    0.11    0.05    0.02   14.74  135.01    2.53    0.00    1.44   14.74    0.00
 2015 137    47   150     1     0.1  181.4  154.9   26.5   47.00   27.72   16.77    8.44    5.02    2.48    1.65    1.32   34.60    0.42    0.34    0.18    0.17    0.11    0.05    0.02   15.20  137.50    2.90    0.00    1.45   15.20    0.00
 2015 138    48   150     1     0.3  181.5  158.7   22.8   57.14   25.91   16.12    8.37    5.10    2.58    1.70    1.34   29.14    0.42    0.34    0.18    0.17    0.11    0.05    0.02   15.70  141.70    3.14    0.00    1.48   15.70    0.00
 2015 139    49   150     1     0.3  181.7  164.8   16.9   69.22   25.06   15.65    8.29    5.10    2.60    1.70    1.34   20.63    0.41    0.34    0.18    0.17    0.11    0.05    0.02   16.17  147.84    3.22    0.00    1.64   16.17    0.00
 2015 140    50   150     1     0.3  182.0  167.0   15.0   72.23   25.21   15.49    8.29    5.14    2.63    1.70    1.34   17.91    0.40    0.34    0.18    0.17    0.11    0.05    0.02   16.59  150.06    3.27    0.00    1.71   16.59    0.00
 2015 141    51   150     1     0.3  182.3  168.6   13.7   74.19   25.18   15.41    8.28    5.18    2.68    1.74    1.35   16.01    0.39    0.33    0.18    0.17    0.11    0.05    0.02   16.95  151.70    3.30    0.00    1.76   16.95    0.00
 2015 142    52   150     1     0.3  182.6  171.3   11.3   83.03   23.84   14.99    8.09    5.08    2.67    1.73    1.35   12.74    0.35    0.30    0.18    0.17    0.11    0.05    0.02   17.28  154.39    3.31    0.00    1.78   17.28    0.00
 2015 143    53   150     1     0.3  182.8  173.2    9.6   87.25   23.40   14.88    8.04    5.06    2.67    1.74    1.35   10.48    0.32    0.28    0.17    0.17    0.10    0.05    0.02   17.55  156.33    3.31    0.00    1.79   17.55    0.00
 2015 144    54   150     1     0.3  183.1  174.8    8.3   88.85   23.77   14.85    8.04    5.07    2.68    1.74    1.35    8.66    0.29    0.26    0.17    0.16    0.10    0.05    0.02   17.81  157.94    3.31    0.00    1.79   17.81    0.00
 2015 145    55   150     1     0.3  183.4  175.9    7.5   91.00   23.61   14.77    8.01    5.06    2.69    1.75    1.35    7.71    0.27    0.24    0.17    0.16    0.10    0.05    0.02   18.14  158.99    3.31    0.00    1.80   18.14    0.00
 2015 146    56   150     1     0.3  183.8  177.7    6.1   95.79   23.43   14.43    7.86    4.99    2.68    1.75    1.35    5.73    0.25    0.22    0.16    0.16    0.10    0.05    0.02   18.57  160.83    3.31    0.00    1.82   18.57    0.00
 2015 147    57   150     1     0.3  184.2  179.2    5.1   97.62   23.34   14.46    7.89    5.02    2.70    1.75    1.35    4.30    0.23    0.21    0.16    0.16    0.10    0.05    0.02   19.00  162.29    3.31    0.00    1.83   19.00    0.00
 2015 148    58   150     1     0.3  184.7  180.6    4.1   99.30   23.27   14.50    7.93    5.05    2.72    1.76    1.36    2.95    0.21    0.20    0.16    0.15    0.10    0.05    0.02   19.50  163.69    3.31    0.00    1.88   19.50    0.00
 2015 149    59   150     1     0.3  185.2  181.8    3.4  100.64   23.20   14.54    7.97    5.09    2.74    1.77    1.36    1.93    0.20    0.19    0.16    0.15    0.10    0.05    0.03   20.05  164.90    3.31    0.00    1.94   20.05    0.01
 2015 150    60   150     1     0.3  185.3  182.5    2.9  101.38   23.05   14.56    8.01    5.13    2.77    1.78    1.37    1.21    0.19    0.18    0.15    0.15    0.10    0.06    0.03   20.62  165.93    3.31    0.00    2.00   20.62    0.35
 2015 151    61   150     1     0.3  185.4  182.8    2.5  101.71   22.88   14.57    8.05    5.16    2.79    1.80    1.37    0.77    0.18    0.18    0.15    0.15    0.10    0.06    0.03   21.17  166.73    3.31    0.00    2.05   21.17    0.83
 2015 152    62   150     1     0.3  185.4  183.1    2.3  102.01   22.71   14.58    8.08    5.20    2.81    1.81    1.38    0.49    0.18    0.17    0.15    0.15    0.10    0.06    0.03   21.70  167.41    3.31    0.00    2.10   21.70    1.23
 2015 153    63   150     1     0.3  185.5  183.3    2.2   97.10   25.10   14.57    8.12    5.23    2.84    1.82    1.38    0.30    0.18    0.17    0.15    0.15    0.10    0.06    0.03   22.20  168.00    3.31    0.00    2.14   22.20    1.63
 2015 154    64   150     1     0.3  185.6  183.4    2.1   80.99   33.03   14.57    8.15    5.27    2.86    1.83    1.38    0.23    0.17    0.17    0.15    0.15    0.11    0.06    0.03   22.72  168.52    3.31    0.00    2.20   22.72    2.03
 2015 155    65   150     1     0.3  185.4  183.3    2.0   69.67   37.91   15.21    8.04    5.22    2.86    1.83    1.38    0.06    0.17    0.17    0.15    0.15    0.11    0.06    0.03   23.26  169.04    3.31    0.00    2.33   23.26    2.62
 2015 156    66   150     1     0.3  185.4  183.3    2.1   68.03   37.65   15.85    8.04    5.23    2.88    1.84    1.39    0.07    0.20    0.17    0.15    0.15    0.11    0.06    0.03   23.81  169.52    3.31    0.00    2.36   23.81    3.11
 2015 157    67   150     1     0.3  185.3  183.2    2.1   71.83   35.92   15.82    7.91    5.17    2.88    1.84    1.39    0.08    0.23    0.17    0.15    0.15    0.11    0.06    0.03   24.43  170.08    3.31    0.00    2.39   24.43    3.84
 2015 158    68   150     1     0.3  184.9  182.8    2.1   71.64   35.81   15.82    7.84    5.15    2.89    1.85    1.39    0.08    0.24    0.16    0.15    0.15    0.11    0.06    0.03   25.07  170.67    3.41    0.00    2.42   25.07    4.74
 2015 159    69   150     1     0.3  182.3  180.3    2.1   74.31   33.72   15.28    7.70    5.10    2.89    1.86    1.39    0.09    0.21    0.16    0.14    0.14    0.11    0.06    0.03   25.76  171.38    3.59    0.00    2.46   25.76    7.76
 2015 160    70   150     1     0.3  180.9  178.9    2.0   79.89   31.11   14.71    7.54    5.05    2.90    1.86    1.39    0.07    0.18    0.16    0.14    0.14    0.10    0.06    0.03   26.47  172.12    3.59    0.00    2.49   26.47    9.82
 2015 161    71   150     1     0.3  179.3  177.3    1.9   42.50   43.52   17.93    7.54    5.10    2.93    1.88    1.40    0.07    0.16    0.15    0.14    0.14    0.10    0.06    0.03   27.25  172.94    3.59    0.00    2.52   27.25   12.27
 2015 162    72   150     1     0.3  177.6  175.6    2.0   27.24   34.96   25.29    9.95    5.22    2.95    1.89    1.40    0.10    0.22    0.14    0.13    0.14    0.10    0.06    0.03   28.08  173.69    3.59    0.00    2.55   28.08   14.77
 2015 163    73   150     1     0.3  178.3  176.1    2.2   26.34   33.16   24.51   10.83    6.10    3.29    1.93    1.41    0.13    0.26    0.19    0.14    0.13    0.10    0.06    0.03   28.83  174.22    3.59    0.00    2.57   28.83   14.77
 2015 164    74   150     1     0.3  177.9  175.6    2.3   26.42   31.50   23.70   11.31    6.55    3.45    2.08    1.43    0.13    0.29    0.23    0.15    0.14    0.10    0.06    0.03   29.55  174.77    3.59    0.00    2.60   29.55   15.86
 2015 165    75   150     1     0.3  176.1  173.7    2.4   21.09   31.56   23.85   11.78    6.68    3.48    2.09    1.44    0.10    0.30    0.25    0.15    0.14    0.10    0.06    0.03   30.23  175.35    3.59    0.00    2.65   30.23   18.32
 2015 166    76   150     1     0.3  173.9  171.5    2.5   13.01   24.72   25.46   15.17    7.62    3.59    2.10    1.44    0.09    0.33    0.27    0.16    0.14    0.10    0.06    0.03   30.85  175.84    3.94    0.00    2.69   30.85   20.66
 2015 167    77   150     1     0.6  171.2  168.5    2.6   13.54   22.64   23.66   14.73    8.27    3.96    2.29    1.55    0.09    0.35    0.29    0.17    0.15    0.11    0.06    0.03   31.40  176.20    4.59    0.00    2.73   31.40   22.97
 2015 168    78   150     1     0.9  167.3  164.6    2.7   15.28   20.99   22.05   14.09    8.45    4.16    2.40    1.59    0.08    0.36    0.31    0.18    0.16    0.11    0.06    0.03   32.01  176.71    4.89    0.00    2.76   32.01   26.81
 2015 169    79   150     1     0.9  164.1  161.5    2.6   12.73   20.91   21.50   13.82    8.54    4.22    2.40    1.59    0.07    0.28    0.31    0.18    0.16    0.11    0.06    0.03   32.69  177.46    5.00    0.00    2.80   32.69   30.54
 2015 170    80   150     1     1.1  162.2  159.5    2.6   12.83   19.54   20.69   13.64    8.74    4.41    2.51    1.64    0.08    0.30    0.31    0.18    0.16    0.11    0.06    0.03   33.36  178.04    5.11    0.00    2.82   33.36   32.82
 2015 171    81   150     1     1.2  157.7  155.1    2.6   13.61   18.08   19.71   13.12    8.57    4.46    2.55    1.65    0.09    0.30    0.30    0.17    0.16    0.11    0.06    0.03   34.04  178.71    5.12    0.00    2.86   34.04   37.86
 2015 172    82   150     1     1.2  154.2  151.9    2.4   14.20   17.18   19.02   12.76    8.40    4.48    2.56    1.65    0.07    0.24    0.24    0.16    0.16    0.11    0.06    0.03   34.77  179.66    5.13    0.00    2.89   34.77   42.03
 2015 173    83   150     1     1.2  150.2  148.0    2.2   14.42   16.17   18.24   12.36    8.23    4.49    2.57    1.66    0.07    0.20    0.20    0.15    0.15    0.11    0.06    0.03   35.51  180.57    5.13    0.00    2.92   35.51   46.78
 2015 174    84   150     1     1.2  144.5  142.5    2.0   13.45   14.80   17.31   11.92    8.04    4.52    2.59    1.67    0.07    0.17    0.17    0.14    0.14    0.11    0.06    0.03   36.28  181.43    5.13    0.00    2.95   36.28   53.20
 2015 175    85   150     1     1.2  140.3  138.3    2.0    6.99   15.55   17.32   11.57    7.89    4.55    2.61    1.68    0.06    0.16    0.16    0.14    0.14    0.10    0.06    0.03   37.04  182.26    5.13    0.00    2.97   37.04   58.17
 2015 176    86   150     1     1.2  135.0  133.0    2.0    6.77   13.56   16.79   11.08    7.66    4.56    2.62    1.68    0.09    0.20    0.15    0.13    0.14    0.10    0.06    0.03   37.82  182.97    5.13    0.00    3.00   37.82   64.23
 2015 177    87   150     1     1.2  129.7  127.7    2.0    6.34   12.06   16.01   10.59    7.44    4.56    2.64    1.69    0.10    0.23    0.15    0.13    0.14    0.10    0.06    0.03   38.60  183.68    5.13    0.00    3.03   38.60   70.23
 2015 178    88   150     1     1.2  123.4  121.3    2.0    5.94   10.68   14.82   10.01    7.15    4.55    2.65    1.70    0.10    0.24    0.15    0.13    0.14    0.10    0.06    0.03   39.37  184.41    5.13    0.00    3.06   39.37   77.31
 2015 179    89   150     1     1.2  116.8  114.9    2.0    5.55    9.41   13.58    9.40    6.85    4.53    2.67    1.70    0.08    0.20    0.15    0.13    0.14    0.10    0.06    0.03   40.10  185.19    5.13    0.00    3.10   40.10   84.56
 2015 180    90   150     1     1.2  110.2  108.3    1.9    4.85    8.14   12.39    8.81    6.56    4.49    2.69    1.71    0.07    0.18    0.14    0.12    0.14    0.10    0.06    0.03   40.85  185.98    5.13    0.00    3.13   40.85   91.87
 2015 181    91   150     1     1.2  103.6  101.8    1.8    4.17    6.94   11.21    8.21    6.25    4.43    2.70    1.72    0.07    0.16    0.13    0.12    0.13    0.10    0.06    0.03   41.57  186.74    5.13    0.00    3.15   41.57   99.17
 2015 182    92   150     1     1.2  102.0  100.2    1.8    3.88    6.69   10.87    8.04    6.18    4.43    2.72    1.72    0.09    0.15    0.12    0.11    0.14    0.10    0.06    0.03   42.27  187.44    5.13    0.00    3.17   42.27  101.48
 2015 183    93   150     1     1.2   93.8   92.0    1.8    1.63    4.90   10.24    7.26    5.75    4.32    2.74    1.73    0.11    0.14    0.12    0.11    0.13    0.10    0.06    0.03   42.95  188.12    5.13    0.00    3.19   42.95  110.33
 2015 184    94   150     1     1.2   92.4   90.5    1.9    1.52    4.43    9.94    7.23    5.68    4.30    2.75    1.74    0.14    0.19    0.13    0.10    0.14    0.10    0.06    0.03   43.62  188.66    5.13    0.00    3.21   43.62  112.37
 2015 185    95   150     1     1.2   81.8   79.8    2.0    1.07    2.94    7.96    6.14    5.06    4.10    2.77    1.75    0.15    0.23    0.14    0.10    0.13    0.10    0.06    0.03   44.27  189.21    5.13    0.00    3.23   44.27  123.61
 2015 186    96   150     1     1.2   72.3   70.2    2.0    0.71    1.90    6.14    5.15    4.44    3.87    2.78    1.75    0.16    0.24    0.15    0.10    0.13    0.10    0.06    0.03   44.90  189.78    5.13    0.00    3.25   44.90  133.78
 2015 187    97   150     1     1.2   66.8   64.8    2.0    0.49    1.44    5.12    4.57    4.05    3.71    2.80    1.76    0.17    0.25    0.15    0.10    0.13    0.10    0.06    0.03   45.57  190.42    5.13    0.00    3.27   45.57  139.87
 2015 188    98   150     1     1.2   67.1   65.0    2.1    0.47    1.42    5.16    4.57    4.06    3.72    2.81    1.77    0.20    0.27    0.15    0.10    0.13    0.10    0.06    0.03   46.22  191.01    5.13    0.00    3.28   46.22  140.21
 2015 189    99   150     1     1.2   59.1   57.1    2.0    0.29    0.89    3.70    3.74    3.44    3.44    2.83    1.77    0.21    0.23    0.15    0.09    0.12    0.10    0.06    0.03   46.87  191.71    5.13    0.00    3.30   46.87  148.84
 2015 190   100   150     1     1.2   54.1   52.1    2.0    0.30    0.65    2.85    3.21    3.02    3.19    2.84    1.78    0.23    0.20    0.16    0.09    0.12    0.10    0.06    0.03   47.50  192.37    5.13    0.00    3.30   47.50  154.46
 2015 191   101   150     1     1.2   48.2   46.3    1.9    0.35    0.39    1.94    2.59    2.49    2.85    2.86    1.79    0.20    0.19    0.15    0.09    0.11    0.10    0.06    0.03   48.11  193.04    5.13    0.00    3.30   48.11  160.99
 2015 192   102   150     1     1.2   43.9   42.1    1.9    0.33    0.32    1.36    2.13    2.08    2.56    2.87    1.79    0.19    0.18    0.15    0.09    0.11    0.10    0.06    0.03   48.68  193.64    5.13    0.00    3.30   48.68  165.81
 2015 193   103   150     1     1.2   40.5   38.7    1.8    0.33    0.32    0.94    1.75    1.74    2.28    2.89    1.80    0.18    0.17    0.14    0.09    0.11    0.10    0.06    0.03   49.25  194.27    5.13    0.00    3.30   49.25  169.82
 2015 194   104   150     1     1.2   37.8   36.1    1.7    0.20    0.35    0.70    1.47    1.48    2.04    2.90    1.81    0.16    0.14    0.12    0.08    0.10    0.10    0.06    0.03   49.85  194.96    5.13    0.00    3.31   49.85  173.07
 2015 195   105   150     1     1.2   35.9   34.0    1.8    0.22    0.26    0.53    1.26    1.29    1.83    2.91    1.82    0.21    0.20    0.13    0.08    0.09    0.10    0.06    0.03   50.55  195.58    5.13    0.00    3.31   50.55  175.76
 2015 196   106   150     1     1.2   34.4   32.5    1.8    0.27    0.30    0.42    1.09    1.13    1.65    2.91    1.82    0.24    0.23    0.13    0.07    0.09    0.10    0.06    0.03   51.31  196.31    5.13    0.00    3.31   51.31  178.00
 2015 197   107   150     1     1.2   33.0   31.2    1.9    0.25    0.33    0.36    0.96    1.00    1.50    2.89    1.83    0.28    0.25    0.13    0.07    0.08    0.10    0.06    0.03   52.08  197.05    5.13    0.00    3.31   52.08  180.11
 2015 198   108   150     1     1.2   31.9   30.0    1.9    0.29    0.30    0.33    0.84    0.89    1.36    2.86    1.84    0.31    0.28    0.14    0.07    0.08    0.10    0.06    0.03   52.84  197.76    5.13    0.00    3.31   52.84  182.01
 2015 199   109   150     1     1.2   30.8   28.9    1.9    0.32    0.34    0.33    0.75    0.79    1.23    2.80    1.85    0.31    0.28    0.14    0.06    0.08    0.09    0.06    0.03   53.60  198.53    5.14    0.00    3.31   53.60  183.81
 2015 200   110   150     1     1.2   29.7   27.8    1.9    0.30    0.34    0.33    0.67    0.72    1.12    2.71    1.86    0.33    0.27    0.13    0.06    0.08    0.09    0.06    0.03   54.33  199.27    5.14    0.00    3.31   54.33  185.68
 2015 201   111   150     1     1.2   28.6   26.8    1.8    0.33    0.40    0.32    0.60    0.65    1.02    2.60    1.87    0.33    0.21    0.13    0.06    0.08    0.09    0.06    0.03   55.02  200.07    5.14    0.00    3.32   55.02  187.49
 2015 202   112   150     1     1.2   27.4   25.7    1.7    0.36    0.37    0.32    0.55    0.59    0.94    2.48    1.88    0.30    0.17    0.12    0.06    0.08    0.09    0.06    0.03   55.71  200.85    5.14    0.00    3.32   55.71  189.35
 2015 203   113   150     1     1.2   26.3   24.7    1.6    0.42    0.34    0.31    0.50    0.55    0.86    2.35    1.89    0.22    0.16    0.11    0.06    0.08    0.09    0.06    0.03   56.35  201.58    5.14    0.00    3.32   56.35  191.10
 2015 204   114   150     1     1.2   25.2   23.7    1.6    0.36    0.33    0.30    0.46    0.50    0.78    2.23    1.89    0.19    0.15    0.11    0.06    0.08    0.09    0.06    0.03   56.93  202.20    5.14    0.00    3.32   56.93  192.76
 2015 205   115   150     1     1.2   24.3   22.8    1.5    0.20    0.33    0.34    0.43    0.47    0.72    2.11    1.90    0.17    0.14    0.10    0.06    0.08    0.08    0.06    0.03   57.48  202.79    5.14    0.00    3.32   57.48  194.26
 2015 206   116   150     1     1.2   23.5   21.8    1.6    0.22    0.26    0.31    0.40    0.44    0.66    1.99    1.91    0.22    0.19    0.12    0.06    0.07    0.08    0.06    0.03   58.11  203.30    5.14    0.00    3.32   58.11  195.69
 2015 207   117   150     1     1.2   22.9   21.2    1.7    0.19    0.28    0.33    0.38    0.41    0.61    1.88    1.92    0.26    0.23    0.14    0.06    0.07    0.08    0.06    0.03   58.75  203.84    5.14    0.00    3.32   58.75  196.90
 2015 208   118   150     1     1.2   22.3   20.5    1.8    0.22    0.27    0.32    0.37    0.39    0.57    1.78    1.93    0.29    0.28    0.14    0.06    0.07    0.08    0.06    0.03   59.42  204.42    5.14    0.00    3.33   59.42  198.12
 2015 209   119   150     1     1.2   23.0   21.2    1.9    0.22    0.33    0.41    0.41    0.43    0.60    1.80    1.94    0.31    0.29    0.14    0.07    0.07    0.07    0.06    0.03   60.12  205.09    5.14    0.00    3.33   60.12  198.12
 2015 210   120   150     1     1.2   23.7   21.7    2.0    0.25    0.35    0.44    0.46    0.46    0.63    1.82    1.94    0.34    0.33    0.18    0.08    0.07    0.07    0.06    0.03   60.82  205.63    5.14    0.00    3.33   60.82  198.12
 2015 211   121   150     1     1.2   24.4   22.4    2.0    0.31    0.41    0.52    0.51    0.49    0.66    1.84    1.95    0.35    0.34    0.17    0.09    0.07    0.07    0.06    0.03   61.52  206.31    5.15    0.00    3.33   61.52  198.12
 2015 212   122   150     1     1.2   25.1   23.1    2.0    0.41    0.50    0.61    0.55    0.52    0.69    1.86    1.96    0.33    0.33    0.16    0.10    0.07    0.07    0.06    0.03   62.24  207.06    5.15    0.00    3.33   62.24  198.12
 2015 213   123   150     1     1.2   25.8   23.9    1.9    0.52    0.60    0.69    0.60    0.55    0.72    1.88    1.97    0.30    0.31    0.15    0.10    0.07    0.07    0.06    0.03   62.95  207.82    5.15    0.00    3.33   62.95  198.12
 2015 214   124   150     1     1.2   26.5   24.8    1.8    0.68    0.75    0.76    0.64    0.58    0.74    1.90    1.98    0.22    0.23    0.15    0.10    0.07    0.07    0.06    0.03   63.63  208.67    5.15    0.00    3.33   63.63  198.12
 2015 215   125   150     1     1.2   27.2   25.6    1.7    0.80    0.87    0.84    0.69    0.61    0.77    1.92    1.99    0.18    0.19    0.15    0.09    0.07    0.07    0.06    0.03   64.33  209.48    5.15    0.00    3.34   64.33  198.12
 2015 216   126   150     1     1.2   27.9   26.3    1.6    0.44    0.89    1.07    0.78    0.64    0.80    1.94    2.00    0.16    0.17    0.14    0.09    0.07    0.07    0.06    0.03   65.01  210.22    5.15    0.00    3.34   65.01  198.12
 2015 217   127   150     1     1.2   28.6   26.8    1.8    0.44    0.88    1.10    0.85    0.66    0.82    1.96    2.01    0.21    0.22    0.18    0.10    0.07    0.07    0.06    0.03   65.67  210.68    5.15    0.00    3.34   65.67  198.12
 2015 218   128   150     1     1.2   29.2   27.3    2.0    0.47    0.87    1.10    0.95    0.69    0.85    1.98    2.01    0.25    0.26    0.22    0.11    0.07    0.07    0.06    0.03   66.34  211.18    5.15    0.00    3.34   66.34  198.12
 2015 219   129   150     1     1.2   29.9   27.8    2.1    0.51    0.90    1.13    1.03    0.71    0.87    2.00    2.02    0.27    0.28    0.23    0.12    0.07    0.07    0.06    0.03   67.00  211.73    5.15    0.00    3.34   67.00  198.12
 2015 220   130   150     1     1.2   27.2   25.2    2.0    0.29    0.48    0.84    0.81    0.66    0.80    1.88    2.03    0.28    0.29    0.20    0.13    0.07    0.07    0.06    0.03   67.66  212.42    5.15    0.00    3.34   67.66  201.44
 2015 221   131   150     1     1.2   25.5   23.4    2.0    0.18    0.30    0.64    0.68    0.62    0.74    1.78    2.04    0.31    0.30    0.18    0.13    0.07    0.07    0.06    0.03   68.32  213.07    5.15    0.00    3.34   68.32  203.83
 2015 222   132   150     1     1.2   24.3   22.1    2.2    0.20    0.27    0.43    0.57    0.59    0.69    1.68    2.05    0.34    0.33    0.22    0.13    0.07    0.07    0.06    0.03   68.98  213.60    5.15    0.00    3.35   68.98  205.68
 2015 223   133   150     1     1.2   23.4   21.2    2.3    0.26    0.30    0.33    0.48    0.55    0.64    1.59    2.06    0.35    0.34    0.24    0.14    0.07    0.07    0.06    0.03   69.68  214.22    5.15    0.00    3.35   69.68  207.25
 2015 224   134   150     1     1.2   22.8   20.5    2.3    0.34    0.33    0.31    0.42    0.50    0.60    1.50    2.06    0.34    0.34    0.25    0.14    0.08    0.07    0.06    0.03   70.41  214.95    5.16    0.00    3.35   70.41  208.64
 2015 225   135   150     1     1.2   22.1   20.0    2.1    0.35    0.34    0.36    0.37    0.45    0.56    1.42    2.07    0.32    0.32    0.20    0.14    0.08    0.07    0.06    0.03   71.12  215.78    5.16    0.00    3.35   71.12  210.02
 2015 226   136   150     1     1.2   21.4   19.4    1.9    0.41    0.40    0.34    0.34    0.42    0.53    1.34    2.06    0.24    0.24    0.18    0.14    0.08    0.07    0.05    0.03   71.82  216.69    5.16    0.00    3.35   71.82  211.46
 2015 227   137   150     1     1.2   20.6   18.8    1.8    0.37    0.37    0.33    0.31    0.39    0.50    1.27    2.06    0.20    0.20    0.17    0.14    0.08    0.06    0.05    0.03   72.53  217.51    5.16    0.00    3.35   72.53  212.93
 2015 228   138   150     1     1.2   20.0   18.3    1.7    0.34    0.35    0.33    0.31    0.36    0.47    1.21    2.04    0.17    0.18    0.16    0.13    0.08    0.06    0.05    0.03   73.23  218.29    5.16    0.00    3.35   73.23  214.23
 2015 229   139   150     1     1.2   19.4   17.7    1.7    0.16    0.32    0.37    0.32    0.35    0.45    1.15    2.02    0.21    0.17    0.15    0.13    0.08    0.06    0.05    0.03   73.92  219.01    5.16    0.00    3.36   73.92  215.47
 2015 230   140   150     1     1.2   18.9   17.0    1.9    0.11    0.22    0.29    0.34    0.34    0.43    1.09    2.01    0.25    0.22    0.19    0.13    0.08    0.06    0.05    0.03   74.58  219.49    5.16    0.00    3.36   74.58  216.69
 2015 231   141   150     1     1.2   18.5   16.4    2.1    0.13    0.23    0.25    0.28    0.34    0.41    1.03    1.99    0.29    0.26    0.23    0.15    0.09    0.06    0.05    0.03   75.21  219.90    5.16    0.00    3.36   75.21  217.66
 2015 232   142   150     1     1.2   18.4   16.1    2.3    0.17    0.26    0.27    0.29    0.32    0.39    0.98    1.97    0.31    0.29    0.26    0.16    0.11    0.06    0.05    0.03   75.85  220.37    5.16    0.00    3.36   75.85  218.43
 2015 233   143   150     1     1.2   18.2   15.8    2.4    0.22    0.29    0.29    0.29    0.30    0.37    0.93    1.94    0.32    0.30    0.27    0.16    0.12    0.07    0.05    0.03   76.48  220.90    5.16    0.00    3.36   76.48  219.26
 2015 234   144   150     1     1.2   17.9   15.5    2.4    0.27    0.31    0.30    0.30    0.29    0.35    0.88    1.91    0.32    0.30    0.28    0.16    0.13    0.07    0.05    0.03   77.10  221.48    5.16    0.00    3.36   77.10  220.17
 2015 235   145   150     1     1.2   17.6   15.2    2.4    0.28    0.31    0.31    0.31    0.29    0.33    0.84    1.88    0.34    0.31    0.28    0.16    0.13    0.07    0.05    0.03   77.75  222.09    5.16    0.00    3.36   77.75  221.12
 2015 236   146   150     1     1.2   17.3   15.0    2.3    0.30    0.36    0.35    0.30    0.30    0.32    0.80    1.85    0.35    0.26    0.24    0.15    0.14    0.07    0.05    0.03   78.40  222.89    5.16    0.00    3.37   78.40  222.10
 2015 237   147   150     1     1.2   16.8   14.6    2.2    0.32    0.35    0.34    0.30    0.30    0.31    0.76    1.81    0.34    0.23    0.21    0.15    0.14    0.07    0.05    0.03   79.07  223.66    5.16    0.00    3.37   79.07  223.26
 2015 238   148   150     1     1.2   16.3   14.2    2.1    0.33    0.33    0.33    0.30    0.30    0.29    0.72    1.77    0.33    0.21    0.20    0.15    0.14    0.07    0.05    0.03   79.72  224.38    5.16    0.00    3.37   79.72  224.38
 2015 239   149   150     1     1.2   15.9   13.8    2.0    0.25    0.33    0.35    0.31    0.30    0.28    0.69    1.74    0.27    0.19    0.19    0.15    0.14    0.07    0.05    0.03   80.35  225.09    5.16    0.00    3.37   80.35  225.44
 2015 240   150   150     1     1.2   15.5   13.3    2.2    0.21    0.26    0.29    0.31    0.30    0.28    0.66    1.70    0.30    0.23    0.21    0.15    0.14    0.07    0.04    0.03   80.97  225.57    5.16    0.00    3.37   80.97  226.47
 2015 241   151   150     1     1.2   15.3   13.0    2.3    0.23    0.26    0.27    0.30    0.32    0.27    0.63    1.66    0.33    0.27    0.24    0.15    0.14    0.07    0.04    0.03   81.59  226.06    5.16    0.00    3.37   81.59  227.27
 2015 242   152   150     1     1.2   15.2   12.8    2.4    0.26    0.27    0.28    0.30    0.31    0.28    0.60    1.63    0.35    0.30    0.26    0.15    0.15    0.07    0.04    0.03   82.22  226.60    5.16    0.00    3.38   82.22  228.00
 2015 243   153   150     1     1.2   15.0   12.6    2.5    0.30    0.29    0.29    0.30    0.30    0.28    0.57    1.59    0.36    0.31    0.27    0.15    0.15    0.07    0.04    0.03   82.85  227.17    5.16    0.00    3.38   82.85  228.79
 2015 244   154   150     1     1.2   14.9   12.4    2.5    0.32    0.31    0.30    0.30    0.30    0.27    0.55    1.56    0.35    0.32    0.28    0.15    0.15    0.08    0.04    0.03   83.51  227.81    5.16    0.00    3.38   83.51  229.60
 2015 245   155   150     1     1.2   14.7   12.3    2.4    0.33    0.32    0.35    0.30    0.30    0.28    0.52    1.53    0.34    0.32    0.24    0.15    0.15    0.08    0.04    0.03   84.19  228.58    5.16    0.00    3.38   84.19  230.47
 2015 246   156   150     1     1.2   14.4   12.2    2.2    0.39    0.38    0.35    0.31    0.31    0.28    0.50    1.50    0.26    0.25    0.21    0.15    0.14    0.08    0.04    0.03   84.90  229.51    5.16    0.00    3.38   84.90  231.47
 2015 247   157   150     1     1.2   14.0   12.1    2.0    0.38    0.37    0.35    0.32    0.31    0.28    0.49    1.47    0.21    0.21    0.18    0.14    0.14    0.08    0.04    0.03   85.68  230.46    5.16    0.00    3.39   85.68  232.59
 2015 248   158   150     1     1.2   13.7   11.9    1.9    0.36    0.36    0.34    0.32    0.32    0.28    0.47    1.44    0.17    0.18    0.16    0.14    0.14    0.07    0.04    0.03   86.50  231.41    5.16    0.00    3.39   86.50  233.72
 2015 249   159   150     1     1.2   13.5   11.7    1.8    0.26    0.38    0.35    0.32    0.33    0.28    0.46    1.41    0.16    0.16    0.15    0.13    0.13    0.07    0.04    0.03   87.34  232.33    5.16    0.00    3.39   87.34  234.84
 2015 250   160   150     1     1.2   13.2   11.4    1.8    0.18    0.27    0.36    0.33    0.33    0.28    0.44    1.39    0.21    0.21    0.15    0.12    0.13    0.07    0.04    0.03   88.18  233.12    5.16    0.00    3.39   88.18  235.92
 2015 251   161   150     1     1.2   13.1   11.1    2.0    0.15    0.26    0.30    0.33    0.33    0.28    0.43    1.36    0.26    0.26    0.19    0.13    0.13    0.07    0.04    0.03   89.00  233.75    5.16    0.00    3.39   89.00  236.89
 2015 252   162   150     1     1.2   13.0   10.8    2.2    0.15    0.26    0.28    0.32    0.34    0.28    0.42    1.33    0.30    0.30    0.24    0.13    0.13    0.07    0.04    0.03   89.78  234.33    5.16    0.00    3.40   89.78  237.69
 2015 253   163   150     1     1.2   13.0   10.6    2.4    0.18    0.27    0.26    0.28    0.34    0.29    0.41    1.31    0.33    0.34    0.27    0.15    0.13    0.07    0.04    0.03   90.52  234.88    5.16    0.00    3.40   90.52  238.43
 2015 254   164   150     1     1.2   13.1   10.6    2.5    0.23    0.29    0.29    0.30    0.33    0.29    0.39    1.28    0.34    0.35    0.30    0.16    0.14    0.07    0.04    0.03   91.27  235.51    5.16    0.00    3.40   91.27  239.09
 2015 255   165   150     1     1.2   13.1   10.5    2.6    0.29    0.30    0.29    0.30    0.31    0.28    0.38    1.26    0.34    0.36    0.31    0.16    0.14    0.08    0.04    0.03   91.95  236.11    5.16    0.00    3.41   91.95  239.83
 2015 256   166   150     1     1.2   12.9   10.3    2.6    0.32    0.31    0.30    0.30    0.30    0.28    0.37    1.23    0.34    0.36    0.31    0.16    0.14    0.09    0.04    0.03   92.60  236.72    5.17    0.00    3.41   92.60  240.62
 2015 257   167   150     1     1.2   12.8   10.2    2.6    0.37    0.32    0.31    0.30    0.29    0.28    0.36    1.21    0.28    0.35    0.31    0.16    0.15    0.09    0.04    0.03   93.24  237.39    5.17    0.00    3.41   93.24  241.39
 2015 258   168   150     1     1.2   12.6   10.2    2.4    0.35    0.36    0.35    0.30    0.30    0.28    0.35    1.18    0.24    0.29    0.26    0.16    0.15    0.09    0.04    0.03   93.89  238.22    5.17    0.00    3.42   93.89  242.20
 2015 259   169   150     1     1.2   12.3   10.1    2.3    0.34    0.35    0.34    0.30    0.30    0.28    0.34    1.16    0.22    0.25    0.23    0.16    0.15    0.09    0.04    0.03   94.56  239.03    5.17    0.00    3.42   94.56  243.17
 2015 260   170   150     1     1.2   13.0   10.9    2.1    0.43    0.45    0.43    0.36    0.36    0.31    0.35    1.17    0.19    0.22    0.20    0.15    0.15    0.09    0.04    0.03   95.29  239.89    5.17    0.00    3.42   95.29  243.17
 2015 261   171   150     1     1.2   13.8   11.8    2.0    0.52    0.55    0.52    0.43    0.42    0.35    0.37    1.18    0.17    0.19    0.18    0.15    0.14    0.09    0.04    0.03   96.06  240.79    5.17    0.00    3.43   96.06  243.17
 2015 262   172   150     1     1.2   14.5   12.6    2.0    0.59    0.63    0.60    0.49    0.47    0.38    0.38    1.19    0.17    0.18    0.17    0.15    0.14    0.09    0.04    0.03   96.81  241.58    5.17    0.00    3.43   96.81  243.17
 2015 263   173   150     1     1.2   15.2   13.3    1.9    0.66    0.70    0.66    0.54    0.52    0.42    0.39    1.20    0.16    0.18    0.17    0.15    0.14    0.09    0.04    0.03   97.50  242.28    5.17    0.00    3.43   97.50  243.17
 2015 264   174   150     1     1.2   15.9   13.9    1.9    0.72    0.76    0.72    0.59    0.57    0.44    0.40    1.21    0.16    0.18    0.17    0.15    0.14    0.09    0.04    0.03   98.15  242.92    5.17    0.00    3.44   98.15  243.17
 2015 265   175   150     1     1.2   16.5   14.5    1.9    0.77    0.81    0.77    0.64    0.62    0.47    0.41    1.22    0.16    0.18    0.17    0.15    0.15    0.09    0.04    0.03   98.76  243.53    5.17    0.00    3.44   98.76  243.17
 2015 266   176   150     1     1.2   17.1   15.1    1.9    0.31    0.75    1.00    0.75    0.66    0.50    0.43    1.23    0.15    0.17    0.17    0.14    0.15    0.09    0.04    0.03   99.35  244.12    5.17    0.00    3.44   99.35  243.17
 2015 267   177   150     1     1.2   17.7   15.6    2.1    0.20    0.61    0.96    0.93    0.77    0.53    0.44    1.23    0.19    0.21    0.21    0.15    0.15    0.09    0.04    0.03   99.96  244.57    5.17    0.00    3.44   99.96  243.17
 2015 268   178   150     1     1.2   18.3   16.0    2.3    0.21    0.60    0.94    0.96    0.87    0.56    0.45    1.24    0.23    0.25    0.24    0.17    0.15    0.09    0.04    0.03  100.59  245.01    5.17    0.00    3.44  100.59  243.17
 2015 269   179   150     1     1.2   19.0   16.5    2.5    0.23    0.60    0.92    0.94    0.89    0.66    0.46    1.25    0.26    0.29    0.27    0.18    0.15    0.09    0.04    0.03  101.25  245.48    5.17    0.00    3.45  101.25  243.17
 2015 270   180   150     1     1.2   19.7   17.1    2.6    0.28    0.62    0.92    0.95    0.93    0.73    0.47    1.26    0.28    0.31    0.29    0.19    0.16    0.09    0.04    0.03  101.94  246.04    5.17    0.00    3.45  101.94  243.17
 2015 271   181   150     1     1.2   20.3   17.7    2.6    0.34    0.67    0.95    0.98    0.98    0.78    0.49    1.27    0.29    0.31    0.30    0.19    0.15    0.10    0.04    0.03  102.62  246.69    5.17    0.00    3.45  102.62  243.17
 2015 272   182   150     1     1.2   21.1   18.4    2.6    0.35    0.74    1.02    1.05    1.05    0.82    0.50    1.28    0.29    0.31    0.30    0.18    0.15    0.10    0.04    0.03  103.36  247.43    5.17    0.00    3.46  103.36  243.17
 2015 273   183   150     1     1.2   21.8   19.1    2.6    0.38    0.76    1.06    1.09    1.10    0.86    0.53    1.29    0.32    0.33    0.30    0.18    0.15    0.10    0.04    0.03  104.07  248.11    5.18    0.00    3.46  104.07  243.17
 2015 274   184   150     1     1.2   22.4   19.8    2.6    0.43    0.80    1.11    1.15    1.16    0.90    0.54    1.29    0.33    0.33    0.30    0.17    0.15    0.10    0.04    0.03  104.77  248.80    5.19    0.00    3.46  104.77  243.17
 2015 275   185   150     1     1.2   23.1   20.5    2.6    0.49    0.84    1.21    1.21    1.21    0.93    0.56    1.30    0.33    0.33    0.26    0.16    0.15    0.10    0.04    0.03  105.41  249.53    5.19    0.00    3.47  105.41  243.17
 2015 276   186   150     1     1.2   23.7   21.2    2.5    0.55    0.90    1.28    1.25    1.25    0.96    0.57    1.31    0.33    0.33    0.24    0.16    0.15    0.10    0.04    0.03  106.00  250.16    5.19    0.00    3.47  106.00  243.17
 2015 277   187   150     1     1.2   24.2   21.7    2.4    0.61    0.97    1.33    1.29    1.28    0.99    0.58    1.32    0.33    0.30    0.22    0.16    0.15    0.10    0.04    0.03  106.49  250.72    5.19    0.00    3.47  106.49  243.17
 2015 278   188   150     1     1.2   24.6   22.3    2.4    0.71    1.04    1.38    1.32    1.31    1.01    0.59    1.32    0.29    0.27    0.21    0.16    0.15    0.11    0.04    0.03  106.96  251.26    5.19    0.00    3.48  106.96  243.17
 2015 279   189   150     1     1.2   25.1   22.8    2.3    0.76    1.09    1.42    1.35    1.34    1.03    0.59    1.33    0.27    0.26    0.20    0.16    0.15    0.11    0.04    0.03  107.40  251.76    5.19    0.00    3.48  107.40  243.17
 2015 280   190   150     1     1.2   25.5   23.3    2.3    0.83    1.14    1.46    1.39    1.38    1.06    0.60    1.34    0.25    0.24    0.20    0.16    0.15    0.11    0.04    0.03  107.87  252.27    5.19    0.00    3.48  107.87  243.17
 2015 281   191   150     1     1.2   26.0   23.8    2.2    0.89    1.20    1.51    1.43    1.41    1.08    0.61    1.34    0.23    0.23    0.19    0.16    0.15    0.11    0.04    0.03  108.39  252.82    5.19    0.00    3.48  108.39  243.17
 2015 282   192   150     1     1.2   26.6   24.4    2.2    0.96    1.26    1.56    1.47    1.46    1.11    0.63    1.35    0.21    0.21    0.19    0.16    0.15    0.11    0.04    0.03  108.97  253.45    5.19    0.00    3.49  108.97  243.17
 2015 283   193   150     1     1.2   27.2   25.1    2.1    1.02    1.31    1.62    1.52    1.50    1.14    0.64    1.36    0.20    0.21    0.18    0.16    0.15    0.11    0.04    0.03  109.55  254.06    5.19    0.00    3.49  109.55  243.17
 2015 284   194   150     1     1.2   27.8   25.7    2.1    1.09    1.38    1.67    1.56    1.55    1.18    0.65    1.37    0.18    0.20    0.18    0.15    0.15    0.11    0.04    0.03  110.18  254.73    5.19    0.00    3.49  110.18  243.17
 2015 285   195   150     1     1.2   28.5   26.4    2.1    1.16    1.44    1.73    1.62    1.60    1.21    0.66    1.38    0.17    0.19    0.17    0.15    0.15    0.10    0.04    0.03  110.85  255.45    5.19    0.00    3.50  110.85  243.17
 2015 286   196   150     1     1.2   29.2   27.1    2.0    1.23    1.50    1.79    1.67    1.65    1.25    0.68    1.39    0.15    0.18    0.17    0.15    0.15    0.10    0.04    0.03  111.51  256.15    5.19    0.00    3.50  111.51  243.17
 2015 287   197   150     1     1.2   29.8   27.8    2.0    1.30    1.56    1.85    1.72    1.70    1.28    0.69    1.40    0.14    0.18    0.17    0.14    0.14    0.10    0.04    0.03  112.16  256.83    5.19    0.00    3.50  112.16  243.17
 2015 288   198   150     1     1.2   30.4   28.5    1.9    1.36    1.62    1.91    1.77    1.75    1.32    0.70    1.41    0.13    0.17    0.16    0.14    0.14    0.10    0.04    0.03  112.81  257.52    5.19    0.00    3.51  112.81  243.17
