*Soil Organic Matter daily output file

*DSSAT Cropping System Model Ver. 4.6.1.000 -release      APR 16, 2018; 14:44:24
                                                                                
*RUN   1        : Sim                       MZCER046 UNME2015    1              
 MODEL          : MZCER046 - Maize                                              
 EXPERIMENT     : UNME2015 MZ                                                   
 DATA PATH      :                                                               
 TREATMENT  1   : Sim                       MZCER046                            
  
@YEAR DOY   DAS    OMAC    SCDD    SOCD    SC0D    SCTD   SOMCT    LCTD    ONAC    SNDD    SOND    SN0D    SNTD   SOMNT    LNTD
 2015 090     0       0   13906  142340       0  142340  142260    80.0    0.00  1390.6 14006.3    0.00 14006.3 14004.5    1.80
 2015 091     1       0   13905  142335       0  142335  142256    78.8    0.00  1390.5 14005.9    0.00 14005.9 14004.1    1.81
 2015 092     2       0   13905  142329       0  142329  142252    76.9    0.00  1390.5 14005.5    0.00 14005.5 14003.7    1.81
 2015 093     3       0   13904  142323       0  142323  142248    75.2    0.00  1390.4 14005.1    0.00 14005.1 14003.3    1.82
 2015 094     4       0   13904  142318       0  142318  142244    73.7    0.00  1390.4 14004.7    0.00 14004.7 14002.9    1.82
 2015 095     5       0   13903  142313       0  142313  142241    72.5    0.00  1390.3 14004.4    0.00 14004.4 14002.6    1.82
 2015 096     6       0   13903  142309       0  142309  142238    71.4    0.00  1390.3 14004.1    0.00 14004.1 14002.3    1.82
 2015 097     7       0   13902  142306       0  142306  142235    70.7    0.00  1390.2 14003.9    0.00 14003.9 14002.1    1.81
 2015 098     8       0   13902  142304       0  142304  142234    70.0    0.00  1390.2 14003.7    0.00 14003.7 14001.9    1.81
 2015 099     9       0   13902  142301       0  142301  142232    69.5    0.00  1390.2 14003.5    0.00 14003.5 14001.7    1.81
 2015 100    10       0   13901  142300       0  142300  142231    69.1    0.00  1390.1 14003.4    0.00 14003.4 14001.6    1.81
 2015 101    11       0   13901  142299       0  142299  142230    68.8    0.00  1390.1 14003.3    0.00 14003.3 14001.5    1.81
 2015 102    12       0   13901  142297       0  142297  142229    68.4    0.00  1390.1 14003.2    0.00 14003.2 14001.4    1.80
 2015 103    13       0   13901  142294       0  142294  142226    67.8    0.00  1390.1 14003.0    0.00 14003.0 14001.2    1.80
 2015 104    14       0   13900  142291       0  142291  142224    66.9    0.00  1390.0 14002.7    0.00 14002.7 14000.9    1.80
 2015 105    15       0   13679  142286       0  142286  142220    65.8    0.00  1367.9 14002.4    0.00 14002.4 14000.6    1.79
 2015 106    16       0   13679  142282       0  142282  142217    64.9    0.00  1367.9 14002.0    0.00 14002.0 14000.2    1.78
 2015 107    17       0   13678  142278       0  142278  142214    64.0    0.00  1367.8 14001.7    0.00 14001.7 13999.9    1.78
 2015 108    18       0   13751  142274       0  142274  142210    63.2    0.00  1375.1 14001.4    0.00 14001.4 13999.6    1.77
 2015 109    19       0   13811  142270       0  142270  142207    62.4    0.00  1381.1 14001.1    0.00 14001.1 13999.3    1.76
 2015 110    20       0   13810  142266       0  142266  142205    61.8    0.00  1381.0 14000.8    0.00 14000.8 13999.0    1.76
 2015 111    21       0   13810  142263       0  142263  142202    61.0    0.00  1381.0 14000.5    0.00 14000.5 13998.7    1.75
 2015 112    22       0   13810  142259       0  142259  142199    60.3    0.00  1381.0 14000.2    0.00 14000.2 13998.5    1.75
 2015 113    23       0   13809  142256       0  142256  142197    59.7    0.00  1380.9 14000.0    0.00 14000.0 13998.3    1.74
 2015 114    24       0   13809  142254       0  142254  142195    59.1    0.00  1380.9 13999.8    0.00 13999.8 13998.0    1.74
 2015 115    25       0   13841  142250       0  142250  142192    58.5    0.00  1384.1 13999.5    0.00 13999.5 13997.8    1.73
 2015 116    26       0   13841  142247       0  142247  142190    57.9    0.00  1384.1 13999.3    0.00 13999.3 13997.5    1.72
 2015 117    27       0   13840  142244       0  142244  142187    57.2    0.00  1384.0 13999.0    0.00 13999.0 13997.3    1.72
 2015 118    28       0   13840  142241       0  142241  142184    56.6    0.00  1384.0 13998.7    0.00 13998.7 13997.0    1.71
 2015 119    29       0   13839  142237       0  142237  142181    55.9    0.00  1383.9 13998.4    0.00 13998.4 13996.7    1.70
 2015 120    30       0   13839  142233       0  142233  142178    55.1    0.00  1383.9 13998.1    0.00 13998.1 13996.4    1.69
 2015 121    31       0   13838  142228       0  142228  142174    54.3    0.00  1383.8 13997.7    0.00 13997.7 13996.0    1.68
 2015 122    32       0   13859  142224       0  142224  142170    53.5    0.00  1385.9 13997.3    0.00 13997.3 13995.6    1.67
 2015 123    33       0   13892  142218       0  142218  142166    52.6    0.00  1389.2 13996.9    0.00 13996.9 13995.2    1.66
 2015 124    34       0   13891  142213       0  142213  142161    51.6    0.00  1389.1 13996.4    0.00 13996.4 13994.7    1.65
 2015 125    35       0   13891  142207       0  142207  142157    50.6    0.00  1389.1 13995.9    0.00 13995.9 13994.3    1.64
 2015 126    36       0   13890  142202       0  142202  142152    49.7    0.00  1389.0 13995.5    0.00 13995.5 13993.8    1.62
 2015 127    37       0   13890  142196       0  142196  142147    48.8    0.00  1389.0 13995.0    0.00 13995.0 13993.4    1.61
 2015 128    38       0   13889  142191       0  142191  142143    48.0    0.00  1388.9 13994.5    0.00 13994.5 13992.9    1.60
 2015 129    39       0   13889  142186       0  142186  142139    47.2    0.00  1388.9 13994.1    0.00 13994.1 13992.5    1.58
 2015 130    40       0   13888  142181       0  142181  142134    46.4    0.00  1388.8 13993.7    0.00 13993.7 13992.1    1.57
 2015 131    41       0   13888  142176       0  142176  142131    45.6    0.00  1388.8 13993.3    0.00 13993.3 13991.7    1.56
 2015 132    42       0   13887  142172       0  142172  142127    45.0    0.00  1388.7 13992.9    0.00 13992.9 13991.4    1.54
 2015 133    43       0   13887  142169       0  142169  142124    44.3    0.00  1388.7 13992.6    0.00 13992.6 13991.1    1.53
 2015 134    44       0   13886  142164       0  142164  142121    43.7    0.00  1388.6 13992.3    0.00 13992.3 13990.8    1.52
 2015 135    45       0   13886  142160       0  142160  142117    43.1    0.00  1388.6 13991.9    0.00 13991.9 13990.4    1.51
 2015 136    46       0   13886  142156       0  142156  142114    42.5    0.00  1388.6 13991.6    0.00 13991.6 13990.1    1.50
 2015 137    47       0   13885  142151       0  142151  142109    41.7    0.00  1388.5 13991.1    0.00 13991.1 13989.6    1.48
 2015 138    48       0   13884  142145       0  142145  142104    40.9    0.00  1388.4 13990.6    0.00 13990.6 13989.1    1.46
 2015 139    49       0   13884  142140       0  142140  142100    40.1    0.00  1388.4 13990.1    0.00 13990.1 13988.7    1.45
 2015 140    50       0   13883  142135       0  142135  142096    39.4    0.00  1388.3 13989.7    0.00 13989.7 13988.3    1.43
 2015 141    51       0   13883  142131       0  142131  142092    38.8    0.00  1388.3 13989.3    0.00 13989.3 13987.9    1.42
 2015 142    52       0   13883  142127       0  142127  142089    38.3    0.00  1388.3 13989.0    0.00 13989.0 13987.6    1.41
 2015 143    53       0   13882  142124       0  142124  142086    37.9    0.00  1388.2 13988.7    0.00 13988.7 13987.3    1.40
 2015 144    54       0   13882  142121       0  142121  142084    37.5    0.00  1388.2 13988.5    0.00 13988.5 13987.1    1.39
 2015 145    55       0   13881  142117       0  142117  142080    37.0    0.00  1388.1 13988.2    0.00 13988.2 13986.8    1.37
 2015 146    56       0   13881  142113       0  142113  142076    36.4    0.00  1388.1 13987.7    0.00 13987.7 13986.4    1.36
 2015 147    57       0   13880  142108       0  142108  142072    35.8    0.00  1388.0 13987.3    0.00 13987.3 13986.0    1.34
 2015 148    58       0   13880  142102       0  142102  142067    35.1    0.00  1388.0 13986.8    0.00 13986.8 13985.5    1.33
 2015 149    59       0   13879  142096       0  142096  142062    34.5    0.00  1387.9 13986.3    0.00 13986.3 13984.9    1.31
 2015 150    60       0   13879  142090       0  142090  142056    33.9    0.00  1387.9 13985.7    0.00 13985.7 13984.4    1.30
 2015 151    61       0   13878  142084       0  142084  142051    33.3    0.00  1387.8 13985.1    0.00 13985.1 13983.9    1.28
 2015 152    62       0   13877  142078       0  142078  142046    32.8    0.00  1387.7 13984.6    0.00 13984.6 13983.3    1.27
 2015 153    63       0   13877  142073       0  142073  142041    32.4    0.00  1387.7 13984.1    0.00 13984.1 13982.9    1.26
 2015 154    64       0   13876  142068       0  142068  142036    32.0    0.00  1387.6 13983.6    0.00 13983.6 13982.4    1.25
 2015 155    65       0   13876  142062       0  142062  142030    31.6    0.00  1387.6 13983.1    0.00 13983.1 13981.8    1.23
 2015 156    66       0   13875  142056       0  142056  142025    31.2    0.00  1387.5 13982.5    0.00 13982.5 13981.3    1.22
 2015 157    67       0   13874  142050       0  142050  142019    30.8    0.00  1387.4 13981.9    0.00 13981.9 13980.7    1.21
 2015 158    68       0   13873  142043       0  142043  142012    30.3    0.00  1387.3 13981.3    0.00 13981.3 13980.1    1.20
 2015 159    69       0   13873  142036       0  142036  142006    29.9    0.00  1387.3 13980.6    0.00 13980.6 13979.4    1.19
 2015 160    70       0   13872  142028       0  142028  141999    29.6    0.00  1387.2 13979.9    0.00 13979.9 13978.7    1.18
 2015 161    71       0   13871  142020       0  142020  141991    29.3    0.00  1387.1 13979.1    0.00 13979.1 13977.9    1.17
 2015 162    72       0   13870  142012       0  142012  141983    29.1    0.00  1387.0 13978.3    0.00 13978.3 13977.1    1.16
 2015 163    73       0   13869  142004       0  142004  141975    28.4    0.00  1386.9 13977.6    0.00 13977.6 13976.4    1.14
 2015 164    74       0   13868  141997       0  141997  141968    28.4    0.00  1386.8 13976.9    0.00 13976.9 13975.7    1.14
 2015 165    75       0   13868  141990       0  141990  141962    28.3    0.00  1386.8 13976.2    0.00 13976.2 13975.1    1.13
 2015 166    76       0   13867  141984       0  141984  141955    28.4    0.00  1386.7 13975.6    0.00 13975.6 13974.4    1.14
 2015 167    77       0   13866  141979       0  141979  141950    28.6    0.00  1386.6 13975.1    0.00 13975.1 13973.9    1.14
 2015 168    78       0   13866  141973       0  141973  141944    28.8    0.00  1386.6 13974.5    0.00 13974.5 13973.3    1.15
 2015 169    79       0   13865  141966       0  141966  141937    29.1    0.00  1386.5 13973.8    0.00 13973.8 13972.7    1.16
 2015 170    80       0   13864  141960       0  141960  141931    29.5    0.00  1386.4 13973.2    0.00 13973.2 13972.0    1.17
 2015 171    81       0   13863  141954       0  141954  141924    29.9    0.00  1386.3 13972.5    0.00 13972.5 13971.4    1.18
 2015 172    82       0   13863  141947       0  141947  141917    30.5    0.00  1386.3 13971.9    0.00 13971.9 13970.7    1.20
 2015 173    83       0   13862  141941       0  141941  141910    31.1    0.00  1386.2 13971.1    0.00 13971.1 13969.9    1.22
 2015 174    84       0   13861  141934       0  141934  141902    31.9    0.00  1386.1 13970.4    0.00 13970.4 13969.2    1.24
 2015 175    85       0   13860  141928       0  141928  141895    32.8    0.00  1386.0 13969.7    0.00 13969.7 13968.4    1.26
 2015 176    86       0   13859  141921       0  141921  141887    33.7    0.00  1385.9 13969.0    0.00 13969.0 13967.7    1.29
 2015 177    87       0   13858  141914       0  141914  141879    34.7    0.00  1385.8 13968.3    0.00 13968.3 13966.9    1.32
 2015 178    88       0   13857  141907       0  141907  141872    35.6    0.00  1385.7 13967.5    0.00 13967.5 13966.2    1.34
 2015 179    89       0   13857  141901       0  141901  141865    36.7    0.00  1385.7 13966.9    0.00 13966.9 13965.5    1.38
 2015 180    90       0   13856  141895       0  141895  141857    38.0    0.00  1385.6 13966.2    0.00 13966.2 13964.8    1.42
 2015 181    91       0   13855  141890       0  141890  141850    39.5    0.00  1385.5 13965.5    0.00 13965.5 13964.1    1.47
 2015 182    92       0   13854  141884       0  141884  141843    41.0    0.00  1385.4 13964.9    0.00 13964.9 13963.4    1.51
 2015 183    93       0   13853  141879       0  141879  141837    42.6    0.00  1385.3 13964.3    0.00 13964.3 13962.7    1.56
 2015 184    94       0   13853  141874       0  141874  141830    44.2    0.00  1385.3 13963.7    0.00 13963.7 13962.1    1.61
 2015 185    95       0   13852  141869       0  141869  141824    45.6    0.00  1385.2 13963.1    0.00 13963.1 13961.4    1.65
 2015 186    96       0   13851  141865       0  141865  141817    47.1    0.00  1385.1 13962.5    0.00 13962.5 13960.8    1.70
 2015 187    97       0   13850  141859       0  141859  141811    48.5    0.00  1385.0 13961.9    0.00 13961.9 13960.2    1.74
 2015 188    98       0   13850  141855       0  141855  141805    50.0    0.00  1385.0 13961.4    0.00 13961.4 13959.6    1.79
 2015 189    99       0   13849  141850       0  141850  141798    51.4    0.00  1384.9 13960.8    0.00 13960.8 13958.9    1.83
 2015 190   100       0   13848  141845       0  141845  141792    53.1    0.00  1384.8 13960.2    0.00 13960.2 13958.3    1.89
 2015 191   101       0   13847  141841       0  141841  141786    55.1    0.00  1384.7 13959.7    0.00 13959.7 13957.7    1.95
 2015 192   102       0   13847  141838       0  141838  141781    57.2    0.00  1384.7 13959.2    0.00 13959.2 13957.2    2.02
 2015 193   103       0   13846  141834       0  141834  141775    59.3    0.00  1384.6 13958.7    0.00 13958.7 13956.7    2.08
 2015 194   104       0   13845  141831       0  141831  141769    61.5    0.00  1384.5 13958.2    0.00 13958.2 13956.1    2.15
 2015 195   105       0   13845  141826       0  141826  141762    63.4    0.00  1384.5 13957.6    0.00 13957.6 13955.4    2.21
 2015 196   106       0   13844  141820       0  141820  141755    65.0    0.00  1384.4 13956.9    0.00 13956.9 13954.7    2.26
 2015 197   107       0   13843  141814       0  141814  141747    66.6    0.00  1384.3 13956.3    0.00 13956.3 13953.9    2.31
 2015 198   108       0   13842  141808       0  141808  141740    68.2    0.00  1384.2 13955.6    0.00 13955.6 13953.2    2.36
 2015 199   109       0   13841  141802       0  141802  141733    69.7    0.00  1384.1 13954.9    0.00 13954.9 13952.5    2.41
 2015 200   110       0   13840  141797       0  141797  141726    71.4    0.00  1384.0 13954.3    0.00 13954.3 13951.8    2.47
 2015 201   111       0   13839  141792       0  141792  141719    73.1    0.00  1383.9 13953.7    0.00 13953.7 13951.1    2.52
 2015 202   112       0   13838  141787       0  141787  141712    74.9    0.00  1383.8 13953.1    0.00 13953.1 13950.5    2.58
 2015 203   113       0   13837  141783       0  141783  141706    76.8    0.00  1383.7 13952.5    0.00 13952.5 13949.9    2.63
 2015 204   114       0   13836  141779       0  141779  141700    78.9    0.00  1383.7 13952.0    0.00 13952.0 13949.3    2.70
 2015 205   115       0   13836  141776       0  141776  141695    81.2    0.00  1383.6 13951.6    0.00 13951.6 13948.8    2.76
 2015 206   116       0   13835  141772       0  141772  141689    83.0    0.00  1383.5 13951.0    0.00 13951.0 13948.2    2.82
 2015 207   117       0   13834  141768       0  141768  141683    84.8    0.00  1383.4 13950.5    0.00 13950.5 13947.6    2.87
 2015 208   118       0   13833  141763       0  141763  141676    86.3    0.00  1383.3 13949.9    0.00 13949.9 13947.0    2.93
 2015 209   119       0   13832  141754       0  141754  141670    84.1    0.00  1383.2 13949.2    0.00 13949.2 13946.3    2.88
 2015 210   120       0   13832  141745       0  141745  141663    82.0    0.00  1383.2 13948.5    0.00 13948.5 13945.6    2.84
 2015 211   121       0   13831  141736       0  141736  141656    79.9    0.00  1383.1 13947.8    0.00 13947.8 13945.0    2.80
 2015 212   122       0   13830  141727       0  141727  141650    77.8    0.00  1383.0 13947.1    0.00 13947.1 13944.3    2.75
 2015 213   123       0   13829  141719       0  141719  141643    75.8    0.00  1382.9 13946.4    0.00 13946.4 13943.6    2.71
 2015 214   124       0   13828  141710       0  141710  141636    74.0    0.00  1382.8 13945.7    0.00 13945.7 13943.0    2.67
 2015 215   125       0   13827  141702       0  141702  141630    72.4    0.00  1382.7 13945.0    0.00 13945.0 13942.3    2.63
 2015 216   126       0   13826  141694       0  141694  141623    71.0    0.00  1382.6 13944.3    0.00 13944.3 13941.7    2.60
 2015 217   127       0   13826  141686       0  141686  141617    69.6    0.00  1382.6 13943.6    0.00 13943.6 13941.1    2.56
 2015 218   128       0   13825  141678       0  141678  141610    68.1    0.00  1382.5 13943.0    0.00 13943.0 13940.4    2.53
 2015 219   129       0   13824  141671       0  141671  141604    66.6    0.00  1382.4 13942.3    0.00 13942.3 13939.8    2.49
 2015 220   130       0   13823  141666       0  141666  141598    68.7    0.00  1382.3 13941.7    0.00 13941.7 13939.2    2.54
 2015 221   131       0   13822  141662       0  141662  141591    70.8    0.00  1382.2 13941.2    0.00 13941.2 13938.6    2.60
 2015 222   132       0   13822  141658       0  141658  141585    72.8    0.00  1382.2 13940.6    0.00 13940.6 13937.9    2.66
 2015 223   133       0   13821  141653       0  141653  141578    74.6    0.00  1382.1 13940.0    0.00 13940.0 13937.3    2.72
 2015 224   134       0   13820  141648       0  141648  141571    76.2    0.00  1382.0 13939.4    0.00 13939.4 13936.6    2.76
 2015 225   135       0   13819  141643       0  141643  141565    77.9    0.00  1381.9 13938.8    0.00 13938.8 13935.9    2.81
 2015 226   136       0   13818  141638       0  141638  141558    79.6    0.00  1381.8 13938.2    0.00 13938.2 13935.3    2.87
 2015 227   137       0   13818  141633       0  141633  141551    81.5    0.00  1381.8 13937.6    0.00 13937.6 13934.6    2.92
 2015 228   138       0   13817  141628       0  141628  141545    83.5    0.00  1381.7 13937.0    0.00 13937.0 13934.0    2.98
 2015 229   139       0   13816  141624       0  141624  141538    85.4    0.00  1381.6 13936.4    0.00 13936.4 13933.3    3.03
 2015 230   140       0   13815  141619       0  141619  141532    87.4    0.00  1381.5 13935.8    0.00 13935.8 13932.7    3.09
 2015 231   141       0   13815  141615       0  141615  141526    89.3    0.00  1381.5 13935.3    0.00 13935.3 13932.1    3.15
 2015 232   142       0   13814  141611       0  141611  141520    91.0    0.00  1381.4 13934.7    0.00 13934.7 13931.5    3.21
 2015 233   143       0   13813  141606       0  141606  141514    92.5    0.00  1381.3 13934.2    0.00 13934.2 13930.9    3.26
 2015 234   144       0   13812  141602       0  141602  141508    94.0    0.00  1381.3 13933.7    0.00 13933.7 13930.4    3.31
 2015 235   145       0   13812  141597       0  141597  141502    95.4    0.00  1381.2 13933.1    0.00 13933.1 13929.8    3.36
 2015 236   146       0   13811  141593       0  141593  141496    96.7    0.00  1381.1 13932.6    0.00 13932.6 13929.2    3.40
 2015 237   147       0   13810  141588       0  141588  141490    98.1    0.00  1381.0 13932.0    0.00 13932.0 13928.6    3.45
 2015 238   148       0   13810  141583       0  141583  141484    99.6    0.00  1381.0 13931.5    0.00 13931.5 13928.0    3.50
 2015 239   149       0   13809  141579       0  141579  141478   101.2    0.00  1380.9 13930.9    0.00 13930.9 13927.4    3.55
 2015 240   150       0   13808  141575       0  141575  141472   102.9    0.00  1380.8 13930.4    0.00 13930.4 13926.8    3.61
 2015 241   151       0   13808  141571       0  141571  141466   104.5    0.00  1380.8 13929.9    0.00 13929.9 13926.2    3.66
 2015 242   152       0   13807  141566       0  141566  141460   105.9    0.00  1380.7 13929.4    0.00 13929.4 13925.7    3.71
 2015 243   153       0   13807  141562       0  141562  141455   107.1    0.00  1380.7 13928.8    0.00 13928.8 13925.1    3.76
 2015 244   154       0   13806  141557       0  141557  141448   108.1    0.00  1380.6 13928.3    0.00 13928.3 13924.5    3.80
 2015 245   155       0   13805  141551       0  141551  141442   109.1    0.00  1380.5 13927.7    0.00 13927.7 13923.9    3.84
 2015 246   156       0   13804  141546       0  141546  141436   109.9    0.00  1380.4 13927.1    0.00 13927.1 13923.2    3.88
 2015 247   157       0   13804  141539       0  141539  141428   110.6    0.00  1380.4 13926.4    0.00 13926.4 13922.5    3.91
 2015 248   158       0   13803  141532       0  141532  141421   111.2    0.00  1380.3 13925.7    0.00 13925.7 13921.7    3.95
 2015 249   159       0   13802  141525       0  141525  141413   111.8    0.00  1380.2 13925.0    0.00 13925.0 13921.0    3.98
 2015 250   160       0   13801  141518       0  141518  141405   112.5    0.00  1380.1 13924.2    0.00 13924.2 13920.2    4.01
 2015 251   161       0   13800  141511       0  141511  141398   113.2    0.00  1380.0 13923.5    0.00 13923.5 13919.4    4.05
 2015 252   162       0   13799  141504       0  141504  141390   113.9    0.00  1379.9 13922.8    0.00 13922.8 13918.7    4.08
 2015 253   163       0   13799  141498       0  141498  141383   114.8    0.00  1379.9 13922.2    0.00 13922.2 13918.0    4.12
 2015 254   164       0   13798  141492       0  141492  141377   115.5    0.00  1379.8 13921.5    0.00 13921.5 13917.4    4.15
 2015 255   165       0   13797  141487       0  141487  141370   116.2    0.00  1379.7 13920.9    0.00 13920.9 13916.7    4.19
 2015 256   166       0   13797  141482       0  141482  141364   117.1    0.00  1379.7 13920.4    0.00 13920.4 13916.2    4.23
 2015 257   167       0   13796  141476       0  141476  141359   117.9    0.00  1379.6 13919.9    0.00 13919.9 13915.6    4.26
 2015 258   168       0   13795  141471       0  141471  141353   118.7    0.00  1379.5 13919.3    0.00 13919.3 13915.0    4.30
 2015 259   169       0   13795  141466       0  141466  141347   119.5    0.00  1379.5 13918.7    0.00 13918.7 13914.4    4.33
 2015 260   170       0   13794  141456       0  141456  141340   116.6    0.00  1379.4 13918.0    0.00 13918.0 13913.7    4.27
 2015 261   171       0   13793  141446       0  141446  141333   113.6    0.00  1379.3 13917.2    0.00 13917.2 13913.0    4.20
 2015 262   172       0   13792  141437       0  141437  141326   110.9    0.00  1379.2 13916.5    0.00 13916.5 13912.4    4.13
 2015 263   173       0   13792  141428       0  141428  141319   108.6    0.00  1379.2 13915.8    0.00 13915.8 13911.7    4.07
 2015 264   174       0   13791  141420       0  141420  141313   106.6    0.00  1379.1 13915.1    0.00 13915.1 13911.1    4.02
 2015 265   175       0   13790  141412       0  141412  141308   104.8    0.00  1379.0 13914.5    0.00 13914.5 13910.6    3.97
 2015 266   176       0   13790  141405       0  141405  141302   103.1    0.00  1379.0 13913.9    0.00 13913.9 13910.0    3.93
 2015 267   177       0   13789  141398       0  141398  141296   101.4    0.00  1378.9 13913.3    0.00 13913.3 13909.4    3.88
 2015 268   178       0   13789  141390       0  141390  141290    99.6    0.00  1378.9 13912.7    0.00 13912.7 13908.9    3.84
 2015 269   179       0   13788  141382       0  141382  141284    97.8    0.00  1378.8 13912.0    0.00 13912.0 13908.3    3.79
 2015 270   180       0   13787  141374       0  141374  141278    95.8    0.00  1378.7 13911.4    0.00 13911.4 13907.6    3.73
 2015 271   181       0   13787  141365       0  141365  141272    93.8    0.00  1378.7 13910.7    0.00 13910.7 13907.0    3.67
 2015 272   182       0   13786  141356       0  141356  141265    91.6    0.00  1378.6 13909.9    0.00 13909.9 13906.3    3.61
 2015 273   183       0   13785  141348       0  141348  141258    89.6    0.00  1378.5 13909.2    0.00 13909.2 13905.7    3.55
 2015 274   184       0   13785  141339       0  141339  141252    87.7    0.00  1378.5 13908.5    0.00 13908.5 13905.0    3.49
 2015 275   185       0   13784  141332       0  141332  141246    85.9    0.00  1378.4 13907.9    0.00 13907.9 13904.4    3.44
 2015 276   186       0   13784  141325       0  141325  141240    84.4    0.00  1378.4 13907.3    0.00 13907.3 13903.9    3.39
 2015 277   187       0   13783  141319       0  141319  141236    83.2    0.00  1378.3 13906.8    0.00 13906.8 13903.4    3.36
 2015 278   188       0   13783  141313       0  141313  141231    82.1    0.00  1378.3 13906.3    0.00 13906.3 13903.0    3.32
 2015 279   189       0   13782  141308       0  141308  141227    81.1    0.00  1378.2 13905.9    0.00 13905.9 13902.6    3.29
 2015 280   190       0   13782  141303       0  141303  141223    80.0    0.00  1378.2 13905.4    0.00 13905.4 13902.2    3.26
 2015 281   191       0   13781  141297       0  141297  141218    78.9    0.00  1378.1 13904.9    0.00 13904.9 13901.7    3.22
 2015 282   192       0   13781  141290       0  141290  141212    77.8    0.00  1378.1 13904.3    0.00 13904.3 13901.1    3.18
 2015 283   193       0   13780  141283       0  141283  141207    76.6    0.00  1378.0 13903.7    0.00 13903.7 13900.6    3.15
 2015 284   194       0   13780  141276       0  141276  141201    75.4    0.00  1378.0 13903.1    0.00 13903.1 13900.0    3.11
 2015 285   195       0   13779  141268       0  141268  141194    74.2    0.00  1377.9 13902.4    0.00 13902.4 13899.4    3.07
 2015 286   196       0   13778  141261       0  141261  141188    73.1    0.00  1377.8 13901.8    0.00 13901.8 13898.7    3.03
 2015 287   197       0   13778  141254       0  141254  141182    72.0    0.00  1377.8 13901.1    0.00 13901.1 13898.1    2.99
 2015 288   198       0   13777  141247       0  141247  141176    71.0    0.00  1377.7 13900.5    0.00 13900.5 13897.5    2.96
