*Soil Inorganic Nitrogen daily output file

*DSSAT Cropping System Model Ver. 4.6.1.000 -release      APR 15, 2018; 17:43:28
                                                                                
*RUN   1        : Sim                       MZCER046 UNME2015    1              
 MODEL          : MZCER046 - Maize                                              
 EXPERIMENT     : UNME2015 MZ                                                   
 DATA PATH      :                                                               
 TREATMENT  1   : Sim                       MZCER046                            
  
!                                                            NO3 (ppm) by soil depth (cm):                                   NH4 (ppm) by soil depth (cm):
!                                                            0-5    5-15   15-30   30-45   45-60   60-90  90-120 120-150     0-5    5-15   15-30   30-45   45-60   60-90  90-120 120-150
@YEAR DOY   DAS  NAPC  NI#M    NLCC   NIAD   NITD   NHTD    NI1D    NI2D    NI3D    NI4D    NI5D    NI6D    NI7D    NI8D    NH1D    NH2D    NH3D    NH4D    NH5D    NH6D    NH7D    NH8D    NMNC    NITC    NDNC    NIMC    AMLC   NNMNC    NUCM
 2015 090     0     0     0     0.0   20.7   18.6    2.1    0.90    0.90    0.90    0.90    0.90    0.90    0.90    0.90    0.10    0.10    0.10    0.10    0.10    0.10    0.10    0.10    0.00    0.00    0.00    0.00    0.00    0.00    0.00
 2015 091     1     0     0     0.0   21.0   19.0    2.0    0.43    1.15    0.95    0.93    0.91    0.90    0.94    0.92    0.10    0.08    0.08    0.11    0.11    0.10    0.09    0.09    0.35    0.44    0.00    0.00    0.00    0.35    0.00
 2015 092     2     0     0     0.0   21.5   19.5    2.0    0.62    1.16    0.97    0.94    0.92    0.91    0.96    0.93    0.14    0.12    0.07    0.11    0.12    0.11    0.08    0.08    0.79    0.85    0.00    0.00    0.00    0.79    0.00
 2015 093     3     0     0     0.0   21.9   19.9    2.0    0.75    1.17    0.99    0.96    0.95    0.92    0.98    0.94    0.18    0.15    0.06    0.11    0.13    0.11    0.08    0.07    1.21    1.25    0.00    0.00    0.00    1.21    0.00
 2015 094     4     0     0     0.0   22.2   20.2    2.0    0.91    1.18    1.01    0.97    0.97    0.93    0.99    0.95    0.20    0.17    0.06    0.11    0.13    0.11    0.08    0.06    1.56    1.60    0.00    0.00    0.00    1.56    0.00
 2015 095     5     0     0     0.0   22.6   20.6    2.0    1.15    1.21    1.01    0.98    0.99    0.94    1.00    0.95    0.19    0.17    0.06    0.11    0.13    0.11    0.07    0.06    1.88    1.97    0.00    0.00    0.00    1.88    0.00
 2015 096     6     0     0     0.0   22.9   20.9    1.9    1.42    1.24    1.00    0.99    1.00    0.96    1.01    0.96    0.19    0.17    0.05    0.11    0.14    0.11    0.07    0.05    2.18    2.32    0.00    0.00    0.00    2.18    0.00
 2015 097     7     0     0     0.0   23.1   21.2    1.9    1.46    1.27    1.01    1.00    1.02    0.97    1.01    0.96    0.18    0.17    0.05    0.11    0.13    0.10    0.07    0.05    2.41    2.61    0.00    0.00    0.00    2.41    0.00
 2015 098     8     0     0     0.0   23.3   21.5    1.8    1.50    1.30    1.02    1.02    1.04    0.98    1.02    0.97    0.18    0.17    0.05    0.11    0.13    0.10    0.06    0.04    2.59    2.85    0.00    0.00    0.00    2.59    0.00
 2015 099     9     0     0     0.0   23.4   21.7    1.7    1.35    1.40    1.03    1.03    1.06    0.99    1.03    0.97    0.18    0.17    0.05    0.11    0.13    0.10    0.06    0.04    2.76    3.09    0.00    0.00    0.00    2.76    0.00
 2015 100    10     0     0     0.0   23.5   21.9    1.7    1.33    1.40    1.06    1.04    1.07    1.00    1.03    0.97    0.19    0.17    0.05    0.10    0.12    0.09    0.06    0.04    2.87    3.25    0.00    0.00    0.00    2.87    0.00
 2015 101    11     0     0     0.0   23.6   22.0    1.6    1.56    1.41    1.05    1.04    1.07    1.01    1.03    0.97    0.19    0.16    0.05    0.10    0.12    0.09    0.05    0.03    2.96    3.42    0.00    0.00    0.00    2.96    0.00
 2015 102    12     0     0     0.0   23.8   22.2    1.5    1.36    1.56    1.10    1.04    1.08    1.01    1.03    0.97    0.19    0.16    0.04    0.09    0.11    0.08    0.05    0.03    3.09    3.61    0.00    0.00    0.00    3.09    0.00
 2015 103    13     0     0     0.0   24.0   22.4    1.6    1.56    1.51    1.14    1.04    1.08    1.02    1.04    0.97    0.20    0.18    0.05    0.09    0.11    0.08    0.05    0.03    3.30    3.80    0.00    0.00    0.00    3.30    0.00
 2015 104    14     0     0     0.0   24.3   22.6    1.6    1.82    1.48    1.15    1.04    1.09    1.02    1.04    0.97    0.22    0.20    0.05    0.10    0.12    0.08    0.05    0.03    3.58    4.03    0.00    0.00    0.00    3.58    0.00
 2015 105    15     0     0     0.0   24.6   22.9    1.7    2.03    1.51    1.15    1.05    1.11    1.03    1.04    0.98    0.20    0.21    0.06    0.10    0.12    0.09    0.05    0.03    3.93    4.33    0.00    0.00    0.00    3.93    0.00
 2015 106    16     0     0     0.0   24.9   23.3    1.7    2.22    1.55    1.16    1.06    1.13    1.05    1.05    0.98    0.19    0.20    0.06    0.10    0.13    0.09    0.05    0.03    4.27    4.66    0.00    0.00    0.00    4.27    0.00
 2015 107    17     0     0     0.0   25.3   23.6    1.7    2.29    1.59    1.17    1.08    1.15    1.06    1.05    0.98    0.18    0.20    0.06    0.10    0.13    0.09    0.05    0.03    4.60    4.99    0.00    0.00    0.00    4.60    0.00
 2015 108    18     0     0     0.0   25.6   23.9    1.7    2.21    1.70    1.18    1.10    1.17    1.08    1.06    0.98    0.17    0.19    0.06    0.10    0.13    0.09    0.05    0.02    4.92    5.31    0.00    0.00    0.00    4.92    0.00
 2015 109    19     0     0     0.0   25.9   24.2    1.7    1.63    1.94    1.27    1.12    1.20    1.09    1.07    0.99    0.20    0.19    0.07    0.10    0.13    0.09    0.05    0.02    5.23    5.61    0.00    0.00    0.00    5.23    0.00
 2015 110    20     0     0     0.0   26.2   24.4    1.7    1.58    1.86    1.38    1.13    1.22    1.10    1.08    0.99    0.22    0.21    0.07    0.10    0.13    0.09    0.05    0.02    5.51    5.83    0.00    0.00    0.00    5.51    0.00
 2015 111    21     0     0     0.0   26.5   24.7    1.8    1.81    1.80    1.43    1.14    1.23    1.11    1.08    0.99    0.24    0.22    0.08    0.10    0.13    0.09    0.05    0.02    5.80    6.08    0.00    0.00    0.00    5.80    0.00
 2015 112    22     0     0     0.0   26.7   24.9    1.8    2.09    1.77    1.44    1.14    1.24    1.12    1.08    0.99    0.24    0.23    0.08    0.09    0.13    0.09    0.05    0.02    6.07    6.34    0.00    0.00    0.00    6.07    0.00
 2015 113    23     0     0     0.0   27.0   25.2    1.8    2.43    1.78    1.44    1.14    1.25    1.12    1.08    0.99    0.23    0.22    0.09    0.09    0.13    0.09    0.05    0.02    6.29    6.60    0.00    0.00    0.00    6.29    0.00
 2015 114    24     0     0     0.0   27.2   25.5    1.7    2.50    1.81    1.45    1.16    1.26    1.13    1.09    0.99    0.22    0.21    0.09    0.09    0.13    0.09    0.05    0.02    6.51    6.85    0.00    0.00    0.00    6.51    0.00
 2015 115    25     0     0     0.0   27.4   25.7    1.7    2.22    1.98    1.49    1.17    1.28    1.15    1.09    0.99    0.21    0.20    0.10    0.09    0.13    0.09    0.05    0.02    6.77    7.13    0.00    0.00    0.00    6.77    0.00
 2015 116    26     0     0     0.0   27.7   26.0    1.7    2.17    1.96    1.56    1.18    1.30    1.16    1.10    0.99    0.23    0.22    0.10    0.09    0.13    0.09    0.05    0.02    7.02    7.35    0.00    0.00    0.00    7.02    0.00
 2015 117    27     0     0     0.0   27.9   26.2    1.8    2.49    1.94    1.58    1.18    1.31    1.16    1.10    0.99    0.24    0.22    0.10    0.09    0.13    0.09    0.05    0.02    7.28    7.59    0.00    0.00    0.00    7.28    0.00
 2015 118    28     0     0     0.0   28.2   26.5    1.7    2.91    1.93    1.58    1.18    1.31    1.16    1.10    0.99    0.23    0.21    0.11    0.09    0.13    0.09    0.05    0.02    7.56    7.88    0.00    0.00    0.00    7.56    0.00
 2015 119    29     0     0     0.0   28.5   26.8    1.7    2.99    1.97    1.60    1.19    1.33    1.18    1.10    0.99    0.22    0.21    0.11    0.09    0.13    0.09    0.05    0.02    7.87    8.19    0.00    0.00    0.00    7.87    0.00
 2015 120    30     0     0     0.0   28.9   27.1    1.7    3.07    2.00    1.62    1.21    1.36    1.19    1.11    0.99    0.21    0.20    0.12    0.08    0.13    0.09    0.05    0.02    8.20    8.52    0.00    0.00    0.00    8.20    0.00
 2015 121    31   300     1     0.0  328.8   28.6  300.2    4.78    2.05    1.65    1.23    1.38    1.21    1.12    1.00  435.90    0.19    0.12    0.08    0.14    0.09    0.05    0.02    8.58    8.89    0.00    0.00    0.43    8.58    0.00
 2015 122    32   300     1     0.0  328.8  118.7  210.1  135.26    2.38    1.68    1.25    1.41    1.23    1.12    1.00  304.27    0.19    0.13    0.08    0.14    0.09    0.05    0.02    8.98   97.69    0.00    0.00    0.86    8.98    0.00
 2015 123    33   300     1     0.0  328.9  139.4  189.5  106.01   29.53    3.25    1.32    1.44    1.24    1.13    1.00  274.14    0.21    0.13    0.08    0.14    0.10    0.05    0.02    9.43  118.08    0.00    0.00    1.18    9.43    0.00
 2015 124    34   300     1     0.0  329.1  154.8  174.3  115.25   33.14    5.04    1.44    1.46    1.26    1.14    1.00  251.80    0.24    0.15    0.09    0.14    0.10    0.05    0.02    9.91  133.30    0.00    0.00    1.50    9.91    0.00
 2015 125    35   300     1     0.0  329.4  167.1  162.3  127.55   33.86    6.18    1.63    1.49    1.28    1.15    1.01  234.14    0.28    0.18    0.09    0.14    0.10    0.05    0.02   10.37  145.50    0.00    0.00    1.61   10.37    0.00
 2015 126    36   300     1     0.0  329.7  184.5  145.1   80.01   40.91   19.72    6.86    2.32    1.29    1.15    1.01  208.88    0.30    0.20    0.09    0.14    0.10    0.05    0.02   10.84  162.78    0.00    0.00    1.85   10.84    0.00
 2015 127    37   300     1     0.0  329.3  194.8  134.5   58.85   40.51   24.67   11.71    4.48    1.46    1.16    1.01  193.13    0.33    0.23    0.12    0.14    0.10    0.05    0.02   11.31  173.67    0.70    0.00    1.96   11.31    0.00
 2015 128    38   300     1     0.0  328.8  207.2  121.6   81.54   37.33   23.44   11.60    5.16    1.90    1.34    1.01  174.04    0.35    0.26    0.14    0.16    0.10    0.05    0.02   11.78  186.76    1.48    0.00    2.18   11.78    0.00
 2015 129    39   300     1     0.0  328.6  220.4  108.3  101.24   36.08   22.80   11.49    5.62    2.18    1.47    1.08  154.49    0.36    0.27    0.16    0.16    0.10    0.05    0.02   12.19  200.28    1.94    0.00    2.27   12.19    0.00
 2015 130    40   300     1     0.0  328.7  236.0   92.7  110.40   41.75   23.01   11.47    5.96    2.28    1.48    1.08  131.71    0.37    0.28    0.17    0.17    0.10    0.05    0.02   12.61  215.98    2.17    0.00    2.41   12.61    0.00
 2015 131    41   300     1     0.0  328.3  241.1   87.2  116.37   40.91   22.89   11.52    6.27    2.51    1.56    1.18  123.57    0.38    0.29    0.17    0.17    0.10    0.05    0.02   13.01  221.78    2.88    0.00    2.49   13.01    0.00
 2015 132    42   300     1     0.0  328.2  247.9   80.2  125.34   40.44   22.79   11.51    6.46    2.67    1.62    1.24  113.35    0.38    0.30    0.18    0.17    0.10    0.05    0.02   13.35  228.98    3.30    0.00    2.56   13.35    0.00
 2015 133    43   300     1     0.0  328.4  263.7   64.7  127.70   49.91   23.45   11.36    6.46    2.70    1.61    1.24   90.70    0.37    0.30    0.18    0.17    0.10    0.05    0.02   13.66  244.78    3.37    0.00    2.59   13.66    0.00
 2015 134    44   300     1     0.0  328.5  268.4   60.1  104.27   58.31   27.34   11.81    6.51    2.73    1.62    1.24   84.04    0.38    0.30    0.18    0.17    0.10    0.05    0.02   14.02  249.67    3.59    0.00    2.61   14.02    0.00
 2015 135    45   300     1     0.0  328.3  271.2   57.1   81.42   60.10   33.03   13.40    6.87    2.80    1.64    1.24   79.55    0.39    0.30    0.18    0.17    0.11    0.05    0.02   14.38  253.05    4.15    0.00    2.62   14.38    0.00
 2015 136    46   300     1     0.0  327.9  273.6   54.3   82.84   58.40   33.13   14.45    7.29    2.89    1.67    1.24   75.36    0.41    0.32    0.18    0.17    0.11    0.05    0.02   14.74  256.20    4.91    0.00    2.63   14.74    0.00
 2015 137    47   300     1     0.1  327.5  277.4   50.1   93.32   54.49   32.08   14.84    7.86    3.20    1.79    1.34   69.11    0.42    0.34    0.18    0.17    0.11    0.05    0.02   15.20  260.83    5.61    0.00    2.64   15.20    0.00
 2015 138    48   300     1     0.3  327.4  284.7   42.6  113.42   50.83   30.77   14.74    8.05    3.36    1.86    1.36   58.17    0.42    0.34    0.18    0.17    0.11    0.05    0.02   15.70  268.78    6.07    0.00    2.66   15.70    0.00
 2015 139    49   300     1     0.3  327.5  296.4   31.1  137.37   49.05   29.79   14.58    8.03    3.39    1.86    1.36   41.38    0.41    0.34    0.18    0.17    0.11    0.05    0.02   16.17  280.58    6.22    0.00    2.83   16.17    0.00
 2015 140    50   300     1     0.3  327.8  300.4   27.4  143.36   49.27   29.44   14.56    8.09    3.43    1.87    1.36   35.99    0.40    0.34    0.18    0.17    0.11    0.05    0.02   16.59  284.63    6.32    0.00    2.91   16.59    0.00
 2015 141    51   300     1     0.3  328.0  303.2   24.8  147.26   49.18   29.25   14.54    8.17    3.51    1.91    1.38   32.17    0.39    0.33    0.18    0.17    0.11    0.05    0.02   16.95  287.56    6.39    0.00    2.95   16.95    0.00
 2015 142    52   300     1     0.3  328.3  308.2   20.1  164.71   46.40   28.34   14.16    7.98    3.49    1.91    1.37   25.60    0.35    0.30    0.18    0.17    0.11    0.05    0.02   17.28  292.51    6.39    0.00    2.97   17.28    0.00
 2015 143    53   300     1     0.3  328.6  311.7   16.9  173.07   45.47   28.05   14.04    7.92    3.49    1.91    1.37   21.04    0.32    0.28    0.17    0.17    0.10    0.05    0.02   17.55  296.02    6.39    0.00    2.98   17.55    0.00
 2015 144    54   300     1     0.3  328.8  314.6   14.2  176.25   46.16   27.95   14.00    7.91    3.49    1.92    1.38   17.37    0.29    0.26    0.17    0.16    0.10    0.05    0.02   17.81  298.90    6.40    0.00    2.99   17.81    0.00
 2015 145    55   300     1     0.3  329.1  316.3   12.8  180.47   45.76   27.75   13.92    7.88    3.50    1.92    1.38   15.43    0.27    0.24    0.17    0.16    0.10    0.05    0.02   18.14  300.63    6.40    0.00    2.99   18.14    0.00
 2015 146    56   300     1     0.3  329.5  319.5   10.0  189.81   45.32   26.99   13.61    7.73    3.48    1.92    1.38   11.45    0.25    0.22    0.16    0.16    0.10    0.05    0.02   18.57  303.84    6.40    0.00    3.01   18.57    0.00
 2015 147    57   300     1     0.3  330.0  322.0    8.0  193.44   45.11   27.01   13.64    7.76    3.50    1.92    1.38    8.55    0.23    0.21    0.16    0.16    0.10    0.05    0.02   19.00  306.29    6.40    0.00    3.02   19.00    0.00
 2015 148    58   300     1     0.3  330.4  324.3    6.1  196.75   44.90   27.03   13.67    7.79    3.52    1.93    1.38    5.90    0.21    0.20    0.16    0.15    0.10    0.05    0.02   19.50  308.57    6.40    0.00    3.08   19.50    0.00
 2015 149    59   300     1     0.3  330.9  326.2    4.7  199.43   44.69   27.05   13.70    7.83    3.54    1.94    1.39    3.88    0.20    0.19    0.16    0.15    0.10    0.05    0.03   20.05  310.46    6.40    0.00    3.13   20.05    0.01
 2015 150    60   300     1     0.3  331.1  327.4    3.7  201.21   44.42   27.06   13.74    7.87    3.57    1.96    1.39    2.45    0.19    0.18    0.15    0.15    0.10    0.06    0.03   20.62  311.97    6.40    0.00    3.19   20.62    0.35
 2015 151    61   300     1     0.3  331.1  328.0    3.1  202.28   44.11   27.06   13.77    7.90    3.59    1.97    1.40    1.60    0.18    0.18    0.15    0.15    0.10    0.06    0.03   21.17  313.06    6.40    0.00    3.24   21.17    0.83
 2015 152    62   300     1     0.3  331.2  328.4    2.7  203.18   43.81   27.05   13.81    7.94    3.61    1.98    1.40    1.04    0.18    0.17    0.15    0.15    0.10    0.06    0.03   21.70  313.93    6.40    0.00    3.29   21.70    1.23
 2015 153    63   300     1     0.3  331.2  328.8    2.5  193.58   48.67   27.02   13.84    7.97    3.63    1.99    1.41    0.68    0.18    0.17    0.15    0.15    0.10    0.06    0.03   22.20  314.63    6.40    0.00    3.34   22.20    1.63
 2015 154    64   300     1     0.3  331.3  328.9    2.4  161.70   64.54   27.00   13.87    8.00    3.66    2.00    1.41    0.54    0.17    0.17    0.15    0.15    0.11    0.06    0.03   22.72  315.19    6.40    0.00    3.39   22.72    2.03
 2015 155    65   300     1     0.3  331.1  328.9    2.2  139.21   74.44   28.26   13.62    7.89    3.65    2.00    1.41    0.34    0.17    0.17    0.15    0.15    0.11    0.06    0.03   23.26  315.74    6.40    0.00    3.53   23.26    2.62
 2015 156    66   300     1     0.3  331.1  328.9    2.2  136.11   74.07   29.51   13.58    7.88    3.67    2.01    1.41    0.30    0.20    0.17    0.15    0.15    0.11    0.06    0.03   23.81  316.23    6.40    0.00    3.57   23.81    3.11
 2015 157    67   300     1     0.3  330.8  328.7    2.1  143.96   70.76   29.45   13.31    7.76    3.66    2.01    1.41    0.08    0.23    0.17    0.15    0.15    0.11    0.06    0.03   24.43  316.81    6.40    0.00    3.73   24.43    3.84
 2015 158    68   300     1     0.3  330.3  328.2    2.1  143.89   70.72   29.48   13.13    7.69    3.66    2.02    1.42    0.07    0.24    0.16    0.15    0.15    0.11    0.06    0.03   25.07  317.41    6.60    0.00    3.77   25.07    4.74
 2015 159    69   300     1     0.3  327.6  325.5    2.1  150.83   67.14   28.65   12.84    7.57    3.66    2.02    1.42    0.09    0.21    0.16    0.14    0.14    0.11    0.06    0.03   25.76  318.12    6.97    0.00    3.80   25.76    7.76
 2015 160    70   300     1     0.3  326.2  324.2    2.0  163.24   62.24   27.59   12.53    7.44    3.65    2.03    1.42    0.07    0.18    0.16    0.14    0.14    0.10    0.06    0.03   26.47  318.85    6.97    0.00    3.84   26.47    9.82
 2015 161    71   300     1     0.3  324.5  322.6    1.9   87.67   88.30   34.43   12.53    7.50    3.68    2.04    1.43    0.07    0.16    0.15    0.14    0.14    0.10    0.06    0.03   27.25  319.68    6.97    0.00    3.86   27.25   12.27
 2015 162    72   300     1     0.3  322.8  320.8    2.0   56.56   71.75   49.89   17.43    7.66    3.69    2.05    1.43    0.10    0.22    0.14    0.13    0.14    0.10    0.06    0.03   28.08  320.42    6.97    0.00    3.89   28.08   14.77
 2015 163    73   300     1     0.3  323.6  321.4    2.2   54.67   68.03   48.44   19.39    9.37    4.20    2.10    1.44    0.13    0.26    0.19    0.14    0.13    0.10    0.06    0.03   28.83  320.95    6.97    0.00    3.91   28.83   14.77
 2015 164    74   300     1     0.3  323.1  320.8    2.3   55.08   64.90   47.04   20.52   10.31    4.49    2.30    1.46    0.13    0.29    0.23    0.15    0.14    0.10    0.06    0.03   29.55  321.51    6.97    0.00    3.95   29.55   15.86
 2015 165    75   300     1     0.3  321.3  319.0    2.4   44.37   65.76   47.77   21.60   10.51    4.51    2.30    1.46    0.10    0.30    0.25    0.15    0.14    0.10    0.06    0.03   30.23  322.09    6.97    0.00    4.00   30.23   18.32
 2015 166    76   300     1     0.3  318.8  316.3    2.5   27.63   52.02   51.83   28.83   12.34    4.67    2.31    1.46    0.09    0.33    0.27    0.16    0.14    0.10    0.06    0.03   30.85  322.57    7.72    0.00    4.04   30.85   20.66
 2015 167    77   300     1     0.6  315.3  312.7    2.6   29.10   48.20   48.56   28.40   13.96    5.41    2.61    1.60    0.09    0.35    0.29    0.17    0.15    0.11    0.06    0.03   31.40  322.94    9.06    0.00    4.07   31.40   22.97
 2015 168    78   300     1     0.9  311.1  308.5    2.7   33.50   45.53   45.87   27.50   14.56    5.81    2.78    1.65    0.08    0.36    0.31    0.18    0.16    0.11    0.06    0.03   32.01  323.44    9.70    0.00    4.11   32.01   26.81
 2015 169    79   300     1     0.9  307.8  305.2    2.7   28.43   46.07   45.37   27.28   14.81    5.89    2.79    1.66    0.07    0.34    0.31    0.18    0.16    0.11    0.06    0.03   32.69  324.11    9.92    0.00    4.14   32.69   30.54
 2015 170    80   300     1     1.2  305.4  302.7    2.7   28.97   43.36   44.03   27.20   15.43    6.28    2.96    1.71    0.08    0.36    0.31    0.18    0.16    0.11    0.06    0.03   33.36  324.70   10.45    0.00    4.17   33.36   32.82
 2015 171    81   300     1     1.2  300.9  298.2    2.7   31.68   41.26   42.76   26.56   15.36    6.36    3.01    1.73    0.09    0.35    0.30    0.17    0.16    0.11    0.06    0.03   34.04  325.38   10.56    0.00    4.20   34.04   37.86
 2015 172    82   300     1     1.2  297.4  295.0    2.4   33.92   40.15   41.85   26.08   15.15    6.36    3.02    1.73    0.07    0.26    0.24    0.16    0.16    0.11    0.06    0.03   34.76  326.37   10.56    0.00    4.23   34.76   42.03
 2015 173    83   300     1     1.2  293.4  291.2    2.2   35.58   38.92   40.89   25.60   14.94    6.38    3.03    1.74    0.07    0.21    0.20    0.15    0.15    0.11    0.06    0.03   35.51  327.29   10.56    0.00    4.26   35.51   46.78
 2015 174    84   300     1     1.2  287.7  285.6    2.1   34.85   37.35   39.93   25.18   14.80    6.40    3.04    1.75    0.07    0.18    0.17    0.14    0.14    0.11    0.06    0.03   36.28  328.16   10.56    0.00    4.29   36.28   53.20
 2015 175    85   300     1     1.2  283.5  281.5    2.0   18.82   40.92   41.18   24.87   14.69    6.43    3.06    1.75    0.06    0.16    0.16    0.14    0.14    0.10    0.06    0.03   37.04  328.99   10.56    0.00    4.32   37.04   58.17
 2015 176    86   300     1     1.2  278.2  276.2    2.0   18.96   37.62   41.42   24.34   14.48    6.44    3.08    1.76    0.09    0.21    0.15    0.13    0.14    0.10    0.06    0.03   37.83  329.70   10.56    0.00    4.34   37.83   64.23
 2015 177    87   300     1     1.2  272.9  270.9    2.0   18.84   35.38   41.00   23.85   14.28    6.45    3.09    1.77    0.10    0.23    0.15    0.13    0.14    0.10    0.06    0.03   38.60  330.41   10.56    0.00    4.37   38.60   70.23
 2015 178    88   300     1     1.2  266.6  264.5    2.0   19.05   33.69   39.74   23.27   14.04    6.45    3.11    1.77    0.10    0.24    0.15    0.13    0.14    0.10    0.06    0.03   39.37  331.14   10.56    0.00    4.41   39.37   77.31
 2015 179    89   300     1     1.2  260.0  258.1    2.0   19.36   32.13   38.38   22.66   13.78    6.44    3.12    1.78    0.08    0.20    0.15    0.13    0.14    0.10    0.06    0.03   40.10  331.93   10.56    0.00    4.44   40.10   84.56
 2015 180    90   300     1     1.2  253.4  251.5    1.9   18.63   30.52   37.17   22.16   13.59    6.44    3.14    1.79    0.07    0.18    0.14    0.12    0.14    0.10    0.06    0.03   40.85  332.72   10.56    0.00    4.47   40.85   91.87
 2015 181    91   300     1     1.2  246.8  245.0    1.8   17.87   28.95   35.97   21.66   13.39    6.43    3.16    1.80    0.07    0.16    0.13    0.11    0.13    0.10    0.06    0.03   41.58  333.47   10.56    0.00    4.49   41.58   99.17
 2015 182    92   300     1     1.2  245.2  243.4    1.8   17.15   28.76   35.63   21.53   13.36    6.44    3.17    1.80    0.09    0.15    0.13    0.11    0.14    0.10    0.06    0.03   42.28  334.18   10.56    0.00    4.51   42.28  101.48
 2015 183    93   300     1     1.2  237.0  235.2    1.8    8.42   24.54   38.41   20.84   13.06    6.40    3.19    1.81    0.11    0.14    0.12    0.10    0.13    0.10    0.06    0.03   42.96  334.87   10.56    0.00    4.54   42.96  110.33
 2015 184    94   300     1     1.2  235.6  233.7    1.9    8.06   22.86   37.98   21.74   13.01    6.42    3.20    1.82    0.14    0.19    0.13    0.10    0.13    0.10    0.06    0.03   43.63  335.40   10.56    0.00    4.55   43.63  112.37
 2015 185    95   300     1     1.2  225.0  223.0    2.0    7.52   20.22   36.21   20.78   12.60    6.34    3.22    1.82    0.15    0.23    0.14    0.10    0.13    0.10    0.06    0.03   44.28  335.95   10.56    0.00    4.57   44.28  123.61
 2015 186    96   300     1     1.2  215.5  213.4    2.0    6.92   18.40   34.30   19.91   12.23    6.27    3.23    1.83    0.16    0.25    0.15    0.10    0.13    0.10    0.06    0.03   44.91  336.53   10.56    0.00    4.59   44.91  133.78
 2015 187    97   300     1     1.2  210.0  208.0    2.0    5.86   17.44   33.36   19.42   12.01    6.24    3.25    1.84    0.17    0.25    0.15    0.10    0.12    0.10    0.06    0.03   45.58  337.16   10.58    0.00    4.61   45.58  139.87
 2015 188    98   300     1     1.2  210.2  208.1    2.1    5.59   16.83   33.81   19.42   12.03    6.26    3.26    1.84    0.20    0.27    0.15    0.10    0.12    0.10    0.06    0.03   46.22  337.76   10.67    0.00    4.62   46.22  140.21
 2015 189    99   300     1     1.2  202.2  200.2    2.0    5.20   15.45   32.12   18.73   11.70    6.20    3.28    1.85    0.21    0.23    0.15    0.10    0.12    0.10    0.06    0.03   46.87  338.46   10.68    0.00    4.64   46.87  148.84
 2015 190   100   300     1     1.2  197.1  195.2    2.0    5.04   14.70   30.93   18.30   11.48    6.15    3.29    1.86    0.21    0.20    0.16    0.09    0.11    0.10    0.06    0.03   47.51  339.12   10.68    0.00    4.66   47.51  154.51
 2015 191   101   300     1     1.2  191.2  189.3    1.9    4.90   13.78   29.56   17.80   11.22    6.09    3.31    1.86    0.17    0.19    0.15    0.09    0.11    0.10    0.06    0.03   48.12  339.78   10.68    0.00    4.67   48.12  161.07
 2015 192   102   300     1     1.2  186.8  185.0    1.9    4.71   13.08   28.56   17.46   11.04    6.04    3.32    1.87    0.15    0.18    0.15    0.09    0.11    0.10    0.06    0.03   48.68  340.36   10.68    0.00    4.69   48.68  165.95
 2015 193   103   300     1     1.2  179.1  177.3    1.8    4.34   11.86   26.80   16.88   10.72    5.95    3.34    1.88    0.13    0.17    0.14    0.09    0.10    0.10    0.06    0.03   49.25  340.98   10.68    0.00    4.71   49.25  174.26
 2015 194   104   300     1     1.2  171.9  170.2    1.7    1.82   10.04   26.36   16.35   10.43    5.86    3.35    1.89    0.11    0.14    0.12    0.08    0.10    0.10    0.06    0.03   49.85  341.66   10.68    0.00    4.72   49.85  182.01
 2015 195   105   300     1     1.2  165.6  163.8    1.8    1.68    8.73   25.05   15.86   10.16    5.77    3.37    1.89    0.15    0.20    0.13    0.08    0.09    0.10    0.06    0.03   50.54  342.27   10.68    0.00    4.74   50.54  189.02
 2015 196   106   300     1     1.2  160.6  158.8    1.8    1.57    7.91   23.88   15.48    9.95    5.70    3.39    1.90    0.17    0.23    0.13    0.07    0.09    0.10    0.06    0.03   51.29  342.98   10.68    0.00    4.76   51.29  194.70
 2015 197   107   300     1     1.2  161.4  159.6    1.8    1.31    7.73   24.23   15.51    9.99    5.74    3.41    1.91    0.21    0.25    0.13    0.07    0.08    0.10    0.06    0.03   52.05  343.70   10.68    0.00    4.77   52.05  194.70
 2015 198   108   300     1     1.2  156.5  154.7    1.8    1.24    6.85   23.13   15.14    9.78    5.67    3.43    1.92    0.23    0.28    0.13    0.07    0.08    0.10    0.06    0.03   52.80  344.40   10.68    0.00    4.78   52.80  200.28
 2015 199   109   300     1     1.2  152.3  150.5    1.8    1.19    6.35   22.03   14.82    9.60    5.61    3.45    1.93    0.23    0.27    0.12    0.06    0.08    0.09    0.06    0.03   53.54  345.15   10.70    0.00    4.80   53.54  205.20
 2015 200   110   300     1     1.2  150.3  148.6    1.7    1.18    6.19   21.47   14.65    9.51    5.59    3.47    1.94    0.25    0.20    0.12    0.06    0.08    0.09    0.06    0.03   54.26  345.96   10.70    0.00    4.81   54.26  207.88
 2015 201   111   300     1     1.2  149.4  147.7    1.7    1.23    6.16   21.12   14.55    9.46    5.59    3.49    1.95    0.24    0.17    0.11    0.06    0.07    0.10    0.06    0.03   54.94  346.68   10.70    0.00    4.83   54.94  209.48
 2015 202   112   300     1     1.2  147.6  146.1    1.6    1.36    6.02   20.57   14.41    9.39    5.57    3.51    1.96    0.16    0.16    0.11    0.06    0.07    0.10    0.06    0.03   55.62  347.44   10.70    0.00    4.84   55.62  211.91
 2015 203   113   300     1     1.2  148.3  146.7    1.5    1.46    6.10   20.62   14.44    9.42    5.61    3.53    1.96    0.14    0.14    0.10    0.06    0.07    0.09    0.06    0.03   56.25  348.10   10.70    0.00    4.86   56.25  211.91
 2015 204   114   300     1     1.2  148.8  147.3    1.5    0.72    5.43   21.42   14.46    9.44    5.64    3.54    1.97    0.13    0.13    0.10    0.06    0.07    0.09    0.06    0.03   56.82  348.69   10.70    0.00    4.87   56.82  211.91
 2015 205   115   300     1     1.2  149.4  147.8    1.6    0.76    5.22   21.64   14.47    9.46    5.67    3.56    1.98    0.16    0.18    0.12    0.06    0.07    0.09    0.06    0.03   57.43  349.16   10.70    0.00    4.89   57.43  211.91
 2015 206   116   300     1     1.2  150.1  148.4    1.7    0.81    5.19   21.77   14.48    9.48    5.70    3.58    1.99    0.17    0.22    0.13    0.06    0.07    0.09    0.06    0.03   58.09  349.73   10.70    0.00    4.90   58.09  211.91
 2015 207   117   300     1     1.2  150.7  149.0    1.7    0.63    5.01   22.08   14.50    9.51    5.73    3.60    2.00    0.21    0.24    0.13    0.06    0.07    0.09    0.06    0.03   58.73  350.32   10.70    0.00    4.90   58.73  211.91
 2015 208   118   300     1     1.2  151.4  149.5    1.8    0.66    4.83   22.32   14.51    9.53    5.77    3.61    2.00    0.25    0.28    0.14    0.06    0.07    0.09    0.06    0.03   59.39  350.90   10.70    0.00    4.90   59.39  211.91
 2015 209   119   300     1     1.2  152.0  150.2    1.8    0.52    4.37   22.66   14.69    9.55    5.80    3.63    2.01    0.27    0.29    0.14    0.06    0.07    0.08    0.06    0.03   60.09  351.58   10.73    0.00    4.90   60.09  211.91
 2015 210   120   300     1     1.2  152.7  150.7    1.9    0.55    4.15   21.98   15.63    9.58    5.83    3.65    2.02    0.31    0.33    0.14    0.06    0.07    0.08    0.06    0.03   60.78  352.19   10.78    0.00    4.91   60.78  211.91
 2015 211   121   300     1     1.2  153.3  151.4    1.9    0.62    4.11   22.13   15.64    9.60    5.86    3.67    2.03    0.32    0.34    0.15    0.06    0.07    0.08    0.06    0.03   61.45  352.82   10.81    0.00    4.91   61.45  211.91
 2015 212   122   300     1     1.2  154.0  152.1    1.9    0.75    4.23   22.21   15.65    9.62    5.89    3.69    2.04    0.31    0.32    0.15    0.07    0.07    0.08    0.06    0.03   62.14  353.55   10.81    0.00    4.91   62.14  211.91
 2015 213   123   300     1     1.2  154.7  152.9    1.7    0.94    4.45   22.28   15.67    9.64    5.92    3.71    2.05    0.22    0.23    0.15    0.07    0.07    0.08    0.06    0.03   62.83  354.42   10.81    0.00    4.91   62.83  211.91
 2015 214   124   300     1     1.2  155.3  153.7    1.6    1.06    4.56   22.35   15.70    9.66    5.95    3.73    2.06    0.18    0.19    0.14    0.07    0.07    0.08    0.06    0.03   63.49  355.16   10.81    0.00    4.91   63.49  211.91
 2015 215   125   300     1     1.2  156.0  154.4    1.6    1.17    4.67   22.41   15.73    9.69    5.98    3.75    2.07    0.16    0.17    0.13    0.07    0.06    0.08    0.06    0.03   64.15  355.89   10.81    0.00    4.91   64.15  211.91
 2015 216   126   300     1     1.2  156.6  155.1    1.5    0.58    3.79   23.01   16.11    9.72    6.02    3.77    2.08    0.15    0.15    0.12    0.07    0.06    0.08    0.06    0.03   64.78  356.59   10.81    0.00    4.91   64.78  211.91
 2015 217   127   300     1     1.2  157.3  155.6    1.7    0.59    3.68   22.79   16.49    9.74    6.04    3.79    2.08    0.20    0.20    0.16    0.07    0.06    0.08    0.06    0.03   65.43  357.04   10.81    0.00    4.92   65.43  211.91
 2015 218   128   300     1     1.2  157.9  156.1    1.8    0.62    3.59   22.08   17.36    9.76    6.07    3.81    2.09    0.24    0.24    0.19    0.07    0.06    0.08    0.06    0.03   66.06  357.53   10.81    0.00    4.92   66.06  211.91
 2015 219   129   300     1     1.2  158.5  156.7    1.9    0.68    3.58   21.96   17.64    9.78    6.09    3.82    2.10    0.26    0.26    0.18    0.08    0.06    0.08    0.06    0.03   66.70  358.14   10.81    0.00    4.92   66.70  211.91
 2015 220   130   300     1     1.2  159.2  157.3    1.9    0.70    3.67   22.08   17.65    9.79    6.12    3.84    2.11    0.26    0.27    0.17    0.09    0.06    0.08    0.06    0.03   67.33  358.76   10.81    0.00    4.92   67.33  211.91
 2015 221   131   300     1     1.2  159.8  157.9    1.9    0.47    3.23   21.92   18.35    9.81    6.14    3.86    2.12    0.30    0.27    0.16    0.09    0.06    0.08    0.06    0.03   67.95  359.36   10.82    0.00    4.92   67.95  211.91
 2015 222   132   300     1     1.2  160.4  158.3    2.0    0.50    3.10   20.85   19.61    9.82    6.17    3.88    2.13    0.33    0.31    0.19    0.09    0.06    0.08    0.06    0.03   68.60  359.86   10.85    0.00    4.92   68.60  211.91
 2015 223   133   300     1     1.2  161.0  159.0    2.0    0.57    3.10   20.54   20.09    9.84    6.19    3.89    2.13    0.34    0.32    0.17    0.11    0.06    0.07    0.06    0.03   69.27  360.54   10.87    0.00    4.92   69.27  211.91
 2015 224   134   300     1     1.2  158.3  156.3    2.0    0.65    3.02   19.90   19.58    9.76    6.14    3.90    2.14    0.32    0.31    0.16    0.11    0.06    0.07    0.06    0.03   69.97  361.27   10.88    0.00    4.93   69.97  215.34
 2015 225   135   300     1     1.2  155.4  153.6    1.8    0.79    3.05   19.21   19.05    9.67    6.09    3.91    2.15    0.24    0.24    0.16    0.11    0.06    0.07    0.06    0.03   70.64  362.12   10.88    0.00    4.93   70.64  218.90
 2015 226   136   300     1     1.2  153.2  151.5    1.7    0.88    3.01   18.68   18.67    9.62    6.05    3.92    2.16    0.20    0.20    0.15    0.10    0.06    0.07    0.06    0.03   71.30  362.88   10.88    0.00    4.93   71.30  221.75
 2015 227   137   300     1     1.2  150.8  149.2    1.6    0.93    2.95   18.09   18.27    9.55    6.01    3.92    2.17    0.17    0.18    0.15    0.10    0.06    0.07    0.06    0.03   71.94  363.60   10.88    0.00    4.93   71.94  224.78
 2015 228   138   300     1     1.2  148.0  146.5    1.6    0.94    2.86   17.41   17.85    9.48    5.96    3.92    2.18    0.16    0.16    0.14    0.09    0.06    0.07    0.06    0.03   72.57  364.30   10.88    0.00    4.93   72.57  228.20
 2015 229   139   300     1     1.2  147.2  145.6    1.5    0.48    2.44   17.59   17.69    9.46    5.95    3.94    2.19    0.19    0.15    0.12    0.09    0.06    0.07    0.06    0.03   73.19  364.95   10.88    0.00    4.93   73.19  229.69
 2015 230   140   300     1     1.2  147.7  146.0    1.7    0.29    1.84   16.25   19.56    9.48    5.97    3.95    2.20    0.24    0.20    0.14    0.09    0.06    0.07    0.06    0.03   73.81  365.44   10.88    0.00    4.93   73.81  229.79
 2015 231   141   300     1     1.2  146.3  144.5    1.9    0.29    1.70   14.67   20.10    9.87    5.94    3.96    2.20    0.28    0.24    0.18    0.11    0.06    0.07    0.06    0.03   74.43  365.84   10.88    0.00    4.94   74.43  231.76
 2015 232   142   300     1     1.2  141.9  139.9    2.0    0.31    1.55   13.10   19.03   10.58    5.84    3.95    2.21    0.30    0.27    0.22    0.12    0.06    0.07    0.06    0.03   75.04  366.28   10.88    0.00    4.94   75.04  236.78
 2015 233   143   300     1     1.2  137.7  135.5    2.1    0.34    1.45   12.04   18.45   10.38    5.75    3.94    2.22    0.31    0.28    0.24    0.13    0.07    0.07    0.06    0.03   75.64  366.78   10.88    0.00    4.94   75.64  241.60
 2015 234   144   300     1     1.2  134.0  131.8    2.2    0.36    1.41   11.37   17.75   10.14    5.66    3.92    2.23    0.30    0.29    0.25    0.14    0.08    0.07    0.06    0.03   76.23  367.31   10.88    0.00    4.94   76.23  245.86
 2015 235   145   300     1     1.2  132.1  129.9    2.2    0.38    1.39   11.02   17.39   10.00    5.62    3.92    2.24    0.33    0.29    0.22    0.14    0.08    0.07    0.06    0.03   76.84  367.94   10.88    0.00    4.94   76.84  248.38
 2015 236   146   300     1     1.2  127.3  125.2    2.1    0.39    1.36   10.25   16.43    9.70    5.51    3.90    2.24    0.33    0.25    0.20    0.14    0.08    0.07    0.06    0.03   77.46  368.65   10.88    0.00    4.94   77.46  253.84
 2015 237   147   300     1     1.2  122.9  120.9    2.0    0.42    1.33    9.57   15.56    9.42    5.40    3.88    2.25    0.33    0.22    0.19    0.14    0.08    0.07    0.06    0.03   78.09  369.35   10.88    0.00    4.95   78.09  258.80
 2015 238   148   300     1     1.2  118.7  116.8    1.9    0.51    1.28    8.92   14.72    9.16    5.29    3.86    2.26    0.27    0.20    0.18    0.14    0.08    0.07    0.06    0.03   78.70  370.04   10.88    0.00    4.95   78.70  263.62
 2015 239   149   300     1     1.2  115.3  113.4    1.9    0.34    1.13    8.46   14.11    8.94    5.21    3.84    2.27    0.23    0.19    0.17    0.14    0.08    0.07    0.06    0.03   79.29  370.69   10.88    0.00    4.95   79.29  267.62
 2015 240   150   300     1     1.2  113.2  111.3    1.9    0.27    1.00    7.96   13.93    8.80    5.15    3.83    2.27    0.26    0.23    0.17    0.13    0.08    0.07    0.06    0.03   79.85  371.19   10.88    0.00    4.95   79.85  270.29
 2015 241   151   300     1     1.2  112.4  110.3    2.1    0.27    0.93    7.31   14.23    8.74    5.13    3.83    2.28    0.30    0.27    0.20    0.13    0.08    0.07    0.06    0.03   80.44  371.64   10.88    0.00    4.95   80.44  271.71
 2015 242   152   300     1     1.2  110.5  108.3    2.2    0.28    0.88    6.74   13.96    8.73    5.08    3.82    2.29    0.32    0.29    0.22    0.14    0.08    0.07    0.06    0.03   81.04  372.13   10.88    0.00    4.95   81.04  274.21
 2015 243   153   300     1     1.2  108.6  106.3    2.3    0.31    0.85    6.33   13.46    8.80    5.03    3.81    2.30    0.33    0.31    0.24    0.14    0.08    0.07    0.06    0.03   81.63  372.65   10.88    0.00    4.95   81.63  276.69
 2015 244   154   300     1     1.2  105.1  102.9    2.2    0.34    0.82    5.93   12.71    8.52    4.93    3.79    2.31    0.33    0.31    0.21    0.15    0.08    0.07    0.06    0.03   82.25  373.31   10.88    0.00    4.96   82.25  280.81
 2015 245   155   300     1     1.2  102.5  100.5    2.1    0.44    0.87    5.65   12.15    8.30    4.86    3.77    2.31    0.27    0.26    0.20    0.15    0.08    0.07    0.06    0.03   82.89  374.10   10.88    0.00    4.96   82.89  284.00
 2015 246   156   300     1     1.2   99.5   97.6    1.9    0.50    0.88    5.29   11.51    8.07    4.77    3.75    2.32    0.22    0.22    0.18    0.15    0.08    0.07    0.06    0.03   83.56  374.89   10.88    0.00    4.96   83.56  287.68
 2015 247   157   300     1     1.2   96.7   94.9    1.8    0.55    0.87    4.96   10.91    7.84    4.69    3.73    2.33    0.19    0.19    0.17    0.14    0.08    0.06    0.06    0.03   84.29  375.74   10.88    0.00    4.96   84.29  291.25
 2015 248   158   300     1     1.2   94.7   93.0    1.7    0.60    0.89    4.74   10.48    7.69    4.63    3.71    2.34    0.16    0.17    0.16    0.13    0.08    0.06    0.06    0.03   85.05  376.60   10.88    0.00    4.96   85.05  293.95
 2015 249   159   300     1     1.2   92.3   90.7    1.6    0.43    0.93    4.50    9.96    7.49    4.56    3.70    2.35    0.15    0.16    0.14    0.12    0.08    0.06    0.06    0.03   85.80  377.45   10.88    0.00    4.97   85.80  297.15
 2015 250   160   300     1     1.2   90.8   89.1    1.7    0.28    0.81    4.36    9.70    7.35    4.51    3.69    2.36    0.20    0.21    0.14    0.11    0.07    0.06    0.05    0.03   86.57  378.16   10.88    0.00    4.97   86.57  299.43
 2015 251   161   300     1     1.2   89.8   87.9    1.8    0.22    0.70    4.06    9.67    7.26    4.48    3.69    2.37    0.25    0.25    0.18    0.11    0.07    0.06    0.05    0.03   87.33  378.74   10.88    0.00    4.97   87.33  301.17
 2015 252   162   300     1     1.2   87.4   85.4    2.0    0.20    0.61    3.60    9.36    7.05    4.40    3.66    2.38    0.29    0.30    0.22    0.12    0.07    0.06    0.05    0.03   88.07  379.27   10.88    0.00    4.97   88.07  304.27
 2015 253   163   300     1     1.2   84.5   82.2    2.2    0.23    0.55    3.07    8.22    7.51    4.28    3.62    2.39    0.32    0.33    0.26    0.13    0.07    0.06    0.05    0.03   88.77  379.80   10.88    0.00    4.97   88.77  307.94
 2015 254   164   300     1     1.2   81.7   79.4    2.3    0.28    0.52    2.70    7.47    7.49    4.19    3.59    2.40    0.34    0.35    0.28    0.14    0.09    0.06    0.06    0.03   89.49  380.39   10.88    0.00    4.98   89.49  311.38
 2015 255   165   300     1     1.2   78.6   76.2    2.4    0.31    0.49    2.41    6.85    7.16    4.07    3.54    2.41    0.34    0.35    0.29    0.14    0.10    0.06    0.06    0.03   90.14  380.96   10.89    0.00    4.98   90.14  315.15
 2015 256   166   300     1     1.2   75.6   73.2    2.5    0.33    0.48    2.19    6.35    6.73    3.96    3.50    2.41    0.33    0.35    0.30    0.15    0.11    0.06    0.06    0.03   90.75  381.54   10.90    0.00    4.98   90.75  318.73
 2015 257   167   300     1     1.2   71.5   69.2    2.3    0.37    0.49    1.96    5.66    6.17    3.80    3.42    2.42    0.28    0.29    0.26    0.15    0.11    0.06    0.06    0.03   91.36  382.31   10.90    0.00    4.99   91.36  323.42
 2015 258   168   300     1     1.2   68.8   66.6    2.2    0.39    0.49    1.81    5.20    5.80    3.69    3.38    2.42    0.24    0.26    0.23    0.15    0.12    0.06    0.06    0.03   91.97  383.04   10.90    0.00    4.99   91.97  326.79
 2015 259   169   300     1     1.2   66.2   64.1    2.1    0.40    0.49    1.66    4.78    5.44    3.59    3.33    2.43    0.21    0.23    0.21    0.15    0.11    0.06    0.06    0.03   92.60  383.77   10.90    0.00    4.99   92.60  329.98
 2015 260   170   300     1     1.2   66.9   64.9    2.0    0.49    0.58    1.75    4.83    5.49    3.61    3.35    2.44    0.19    0.21    0.19    0.15    0.11    0.06    0.06    0.03   93.28  384.55   10.90    0.00    5.00   93.28  329.98
 2015 261   171   300     1     1.2   67.6   65.8    1.9    0.58    0.67    1.83    4.90    5.53    3.64    3.37    2.45    0.16    0.19    0.18    0.15    0.11    0.06    0.06    0.03   94.01  385.38   10.90    0.00    5.00   94.01  329.98
 2015 262   172   300     1     1.2   68.3   66.5    1.8    0.65    0.75    1.90    4.96    5.58    3.66    3.39    2.46    0.16    0.18    0.17    0.14    0.10    0.06    0.06    0.03   94.71  386.11   10.90    0.00    5.00   94.71  329.98
 2015 263   173   300     1     1.2   69.0   67.1    1.8    0.72    0.81    1.97    5.01    5.61    3.68    3.41    2.47    0.16    0.18    0.17    0.14    0.10    0.06    0.06    0.03   95.36  386.77   10.90    0.00    5.01   95.36  329.98
 2015 264   174   300     1     1.2   69.5   67.7    1.8    0.78    0.87    2.02    5.06    5.65    3.70    3.43    2.48    0.16    0.17    0.17    0.14    0.10    0.06    0.06    0.03   95.95  387.37   10.90    0.00    5.01   95.95  329.98
 2015 265   175   300     1     1.2   70.1   68.3    1.8    0.83    0.93    2.08    5.10    5.68    3.72    3.45    2.49    0.15    0.17    0.16    0.14    0.10    0.06    0.06    0.03   96.50  387.93   10.90    0.00    5.01   96.50  329.98
 2015 266   176   300     1     1.2   70.6   68.8    1.8    0.33    0.84    2.27    5.28    5.71    3.74    3.46    2.49    0.15    0.17    0.16    0.13    0.10    0.06    0.06    0.03   97.03  388.47   10.90    0.00    5.02   97.03  329.98
 2015 267   177   300     1     1.2   71.2   69.3    1.9    0.21    0.69    2.07    5.44    6.00    3.76    3.48    2.50    0.19    0.21    0.20    0.14    0.10    0.06    0.06    0.03   97.61  388.89   10.90    0.00    5.02   97.61  329.98
 2015 268   178   300     1     1.2   71.8   69.7    2.1    0.22    0.68    2.00    5.34    6.29    3.78    3.50    2.51    0.23    0.24    0.23    0.16    0.11    0.06    0.06    0.03   98.22  389.29   10.90    0.00    5.02   98.22  329.98
 2015 269   179   300     1     1.2   72.4   70.1    2.3    0.24    0.68    1.91    4.91    6.83    3.85    3.52    2.52    0.26    0.28    0.27    0.17    0.12    0.06    0.06    0.03   98.86  389.75   10.90    0.00    5.02   98.86  329.98
 2015 270   180   300     1     1.2   73.1   70.7    2.4    0.29    0.71    1.89    4.69    6.75    4.10    3.53    2.53    0.28    0.30    0.29    0.18    0.13    0.06    0.06    0.03   99.53  390.29   10.90    0.00    5.03   99.53  329.98
 2015 271   181   300     1     1.2   73.8   71.3    2.5    0.35    0.76    1.91    4.61    6.77    4.20    3.55    2.54    0.29    0.31    0.30    0.18    0.14    0.07    0.06    0.03  100.21  390.89   10.91    0.00    5.03  100.21  329.98
 2015 272   182   300     1     1.2   74.5   72.0    2.5    0.36    0.84    1.98    4.67    6.84    4.22    3.56    2.54    0.29    0.31    0.30    0.18    0.14    0.07    0.06    0.03  100.93  391.60   10.91    0.00    5.03  100.93  329.98
 2015 273   183   300     1     1.2   75.2   72.6    2.6    0.39    0.86    2.00    4.59    6.88    4.35    3.58    2.55    0.31    0.33    0.30    0.17    0.14    0.07    0.06    0.03  101.64  392.26   10.92    0.00    5.04  101.64  329.98
 2015 274   184   300     1     1.2   75.9   73.3    2.6    0.44    0.90    2.05    4.64    6.97    4.37    3.60    2.56    0.33    0.33    0.30    0.17    0.15    0.07    0.06    0.03  102.33  392.92   10.92    0.00    5.04  102.33  329.98
 2015 275   185   300     1     1.2   76.5   74.0    2.5    0.50    0.96    2.16    4.71    7.00    4.39    3.61    2.57    0.33    0.33    0.26    0.16    0.15    0.08    0.06    0.03  102.97  393.64   10.93    0.00    5.04  102.97  329.98
 2015 276   186   300     1     1.2   77.1   74.6    2.5    0.57    1.02    2.25    4.76    7.03    4.40    3.63    2.57    0.33    0.33    0.23    0.16    0.15    0.08    0.06    0.03  103.55  394.25   10.93    0.00    5.05  103.55  329.98
 2015 277   187   300     1     1.2   77.6   75.2    2.4    0.63    1.10    2.31    4.80    7.05    4.42    3.64    2.58    0.32    0.30    0.22    0.16    0.15    0.08    0.06    0.03  104.04  394.80   10.93    0.00    5.05  104.04  329.98
 2015 278   188   300     1     1.2   78.0   75.7    2.3    0.73    1.17    2.37    4.84    7.07    4.43    3.65    2.58    0.29    0.27    0.21    0.16    0.15    0.08    0.06    0.03  104.51  395.34   10.93    0.00    5.05  104.51  329.98
 2015 279   189   300     1     1.2   78.5   76.2    2.3    0.79    1.22    2.42    4.87    7.11    4.45    3.66    2.59    0.27    0.26    0.20    0.16    0.15    0.08    0.06    0.03  104.94  395.83   10.93    0.00    5.05  104.94  329.98
 2015 280   190   300     1     1.2   78.9   76.7    2.2    0.85    1.28    2.46    4.90    7.14    4.47    3.68    2.60    0.24    0.24    0.20    0.16    0.15    0.08    0.06    0.03  105.41  396.34   10.93    0.00    5.06  105.41  329.98
 2015 281   191   300     1     1.2   79.4   77.2    2.2    0.91    1.33    2.51    4.94    7.18    4.49    3.69    2.61    0.23    0.23    0.19    0.16    0.15    0.08    0.06    0.03  105.92  396.88   10.93    0.00    5.06  105.92  329.98
 2015 282   192   300     1     1.2   80.0   77.8    2.2    0.98    1.39    2.56    4.99    7.22    4.51    3.71    2.61    0.21    0.21    0.19    0.16    0.15    0.08    0.06    0.03  106.49  397.50   10.93    0.00    5.06  106.49  329.98
 2015 283   193   300     1     1.2   80.6   78.4    2.1    1.04    1.45    2.61    5.03    7.26    4.53    3.72    2.62    0.20    0.21    0.18    0.16    0.15    0.08    0.06    0.03  107.06  398.10   10.93    0.00    5.06  107.06  329.98
 2015 284   194   300     1     1.2   81.2   79.1    2.1    1.11    1.51    2.67    5.08    7.31    4.56    3.74    2.63    0.18    0.20    0.18    0.15    0.15    0.08    0.06    0.03  107.68  398.76   10.93    0.00    5.07  107.68  329.98
 2015 285   195   300     1     1.2   81.8   79.8    2.0    1.19    1.58    2.73    5.13    7.36    4.58    3.76    2.64    0.17    0.19    0.17    0.15    0.15    0.08    0.06    0.03  108.35  399.48   10.93    0.00    5.07  108.35  329.98
 2015 286   196   300     1     1.2   82.5   80.5    2.0    1.26    1.64    2.79    5.18    7.41    4.61    3.78    2.65    0.15    0.18    0.17    0.14    0.15    0.08    0.06    0.03  108.99  400.17   10.93    0.00    5.07  108.99  329.98
 2015 287   197   300     1     1.2   83.1   81.2    1.9    1.32    1.70    2.85    5.23    7.46    4.64    3.80    2.66    0.14    0.17    0.16    0.14    0.14    0.08    0.06    0.03  109.61  400.83   10.93    0.00    5.08  109.61  329.98
 2015 288   198   300     1     1.2   83.7   81.8    1.9    1.39    1.76    2.90    5.28    7.51    4.66    3.82    2.67    0.13    0.17    0.16    0.13    0.14    0.08    0.06    0.03  110.23  401.50   10.93    0.00    5.08  110.23  329.98
