*Soil Organic Matter daily output file

*DSSAT Cropping System Model Ver. 4.6.1.000 -release      APR 15, 2018; 17:43:28
                                                                                
*RUN   1        : Sim                       MZCER046 UNME2015    1              
 MODEL          : MZCER046 - Maize                                              
 EXPERIMENT     : UNME2015 MZ                                                   
 DATA PATH      :                                                               
 TREATMENT  1   : Sim                       MZCER046                            
  
@YEAR DOY   DAS    OMAC    SCDD    SOCD    SC0D    SCTD   SOMCT    LCTD    ONAC    SNDD    SOND    SN0D    SNTD   SOMNT    LNTD
 2015 090     0       0   13906  142340       0  142340  142260    80.0    0.00  1390.6 14006.3    0.00 14006.3 14004.5    1.80
 2015 091     1       0   13905  142335       0  142335  142256    78.8    0.00  1390.5 14005.9    0.00 14005.9 14004.1    1.81
 2015 092     2       0   13905  142329       0  142329  142252    76.9    0.00  1390.5 14005.5    0.00 14005.5 14003.7    1.81
 2015 093     3       0   13904  142323       0  142323  142248    75.2    0.00  1390.4 14005.1    0.00 14005.1 14003.3    1.82
 2015 094     4       0   13904  142318       0  142318  142244    73.7    0.00  1390.4 14004.7    0.00 14004.7 14002.9    1.82
 2015 095     5       0   13903  142313       0  142313  142241    72.5    0.00  1390.3 14004.4    0.00 14004.4 14002.6    1.82
 2015 096     6       0   13903  142309       0  142309  142238    71.4    0.00  1390.3 14004.1    0.00 14004.1 14002.3    1.82
 2015 097     7       0   13902  142306       0  142306  142235    70.7    0.00  1390.2 14003.9    0.00 14003.9 14002.1    1.81
 2015 098     8       0   13902  142304       0  142304  142234    70.0    0.00  1390.2 14003.7    0.00 14003.7 14001.9    1.81
 2015 099     9       0   13902  142301       0  142301  142232    69.5    0.00  1390.2 14003.5    0.00 14003.5 14001.7    1.81
 2015 100    10       0   13901  142300       0  142300  142231    69.1    0.00  1390.1 14003.4    0.00 14003.4 14001.6    1.81
 2015 101    11       0   13901  142299       0  142299  142230    68.8    0.00  1390.1 14003.3    0.00 14003.3 14001.5    1.81
 2015 102    12       0   13901  142297       0  142297  142229    68.4    0.00  1390.1 14003.2    0.00 14003.2 14001.4    1.80
 2015 103    13       0   13901  142294       0  142294  142226    67.8    0.00  1390.1 14003.0    0.00 14003.0 14001.2    1.80
 2015 104    14       0   13900  142291       0  142291  142224    66.9    0.00  1390.0 14002.7    0.00 14002.7 14000.9    1.80
 2015 105    15       0   13679  142286       0  142286  142220    65.8    0.00  1367.9 14002.4    0.00 14002.4 14000.6    1.79
 2015 106    16       0   13679  142282       0  142282  142217    64.9    0.00  1367.9 14002.0    0.00 14002.0 14000.2    1.78
 2015 107    17       0   13678  142278       0  142278  142214    64.0    0.00  1367.8 14001.7    0.00 14001.7 13999.9    1.78
 2015 108    18       0   13751  142274       0  142274  142210    63.2    0.00  1375.1 14001.4    0.00 14001.4 13999.6    1.77
 2015 109    19       0   13811  142270       0  142270  142207    62.4    0.00  1381.1 14001.1    0.00 14001.1 13999.3    1.76
 2015 110    20       0   13810  142266       0  142266  142205    61.8    0.00  1381.0 14000.8    0.00 14000.8 13999.0    1.76
 2015 111    21       0   13810  142263       0  142263  142202    61.0    0.00  1381.0 14000.5    0.00 14000.5 13998.7    1.75
 2015 112    22       0   13810  142259       0  142259  142199    60.3    0.00  1381.0 14000.2    0.00 14000.2 13998.5    1.75
 2015 113    23       0   13809  142256       0  142256  142197    59.7    0.00  1380.9 14000.0    0.00 14000.0 13998.3    1.74
 2015 114    24       0   13809  142254       0  142254  142195    59.1    0.00  1380.9 13999.8    0.00 13999.8 13998.0    1.74
 2015 115    25       0   13841  142250       0  142250  142192    58.5    0.00  1384.1 13999.5    0.00 13999.5 13997.8    1.73
 2015 116    26       0   13841  142247       0  142247  142190    57.9    0.00  1384.1 13999.3    0.00 13999.3 13997.5    1.72
 2015 117    27       0   13840  142244       0  142244  142187    57.2    0.00  1384.0 13999.0    0.00 13999.0 13997.3    1.72
 2015 118    28       0   13840  142241       0  142241  142184    56.6    0.00  1384.0 13998.7    0.00 13998.7 13997.0    1.71
 2015 119    29       0   13839  142237       0  142237  142181    55.9    0.00  1383.9 13998.4    0.00 13998.4 13996.7    1.70
 2015 120    30       0   13839  142233       0  142233  142178    55.1    0.00  1383.9 13998.1    0.00 13998.1 13996.4    1.69
 2015 121    31       0   13838  142228       0  142228  142174    54.3    0.00  1383.8 13997.7    0.00 13997.7 13996.0    1.68
 2015 122    32       0   13859  142224       0  142224  142170    53.5    0.00  1385.9 13997.3    0.00 13997.3 13995.6    1.67
 2015 123    33       0   13892  142218       0  142218  142166    52.6    0.00  1389.2 13996.9    0.00 13996.9 13995.2    1.66
 2015 124    34       0   13891  142213       0  142213  142161    51.6    0.00  1389.1 13996.4    0.00 13996.4 13994.7    1.65
 2015 125    35       0   13891  142207       0  142207  142157    50.6    0.00  1389.1 13995.9    0.00 13995.9 13994.3    1.64
 2015 126    36       0   13890  142202       0  142202  142152    49.7    0.00  1389.0 13995.5    0.00 13995.5 13993.8    1.62
 2015 127    37       0   13890  142196       0  142196  142147    48.8    0.00  1389.0 13995.0    0.00 13995.0 13993.4    1.61
 2015 128    38       0   13889  142191       0  142191  142143    48.0    0.00  1388.9 13994.5    0.00 13994.5 13992.9    1.60
 2015 129    39       0   13889  142186       0  142186  142139    47.2    0.00  1388.9 13994.1    0.00 13994.1 13992.5    1.58
 2015 130    40       0   13888  142181       0  142181  142134    46.4    0.00  1388.8 13993.7    0.00 13993.7 13992.1    1.57
 2015 131    41       0   13888  142176       0  142176  142131    45.6    0.00  1388.8 13993.3    0.00 13993.3 13991.7    1.56
 2015 132    42       0   13887  142172       0  142172  142127    45.0    0.00  1388.7 13992.9    0.00 13992.9 13991.4    1.54
 2015 133    43       0   13887  142169       0  142169  142124    44.3    0.00  1388.7 13992.6    0.00 13992.6 13991.1    1.53
 2015 134    44       0   13886  142164       0  142164  142121    43.7    0.00  1388.6 13992.3    0.00 13992.3 13990.8    1.52
 2015 135    45       0   13886  142160       0  142160  142117    43.1    0.00  1388.6 13991.9    0.00 13991.9 13990.4    1.51
 2015 136    46       0   13886  142156       0  142156  142114    42.5    0.00  1388.6 13991.6    0.00 13991.6 13990.1    1.50
 2015 137    47       0   13885  142151       0  142151  142109    41.7    0.00  1388.5 13991.1    0.00 13991.1 13989.6    1.48
 2015 138    48       0   13884  142145       0  142145  142104    40.9    0.00  1388.4 13990.6    0.00 13990.6 13989.1    1.46
 2015 139    49       0   13884  142140       0  142140  142100    40.1    0.00  1388.4 13990.1    0.00 13990.1 13988.7    1.45
 2015 140    50       0   13883  142135       0  142135  142096    39.4    0.00  1388.3 13989.7    0.00 13989.7 13988.3    1.43
 2015 141    51       0   13883  142131       0  142131  142092    38.8    0.00  1388.3 13989.3    0.00 13989.3 13987.9    1.42
 2015 142    52       0   13883  142127       0  142127  142089    38.3    0.00  1388.3 13989.0    0.00 13989.0 13987.6    1.41
 2015 143    53       0   13882  142124       0  142124  142086    37.9    0.00  1388.2 13988.7    0.00 13988.7 13987.3    1.40
 2015 144    54       0   13882  142121       0  142121  142084    37.5    0.00  1388.2 13988.5    0.00 13988.5 13987.1    1.39
 2015 145    55       0   13881  142117       0  142117  142080    37.0    0.00  1388.1 13988.2    0.00 13988.2 13986.8    1.37
 2015 146    56       0   13881  142113       0  142113  142076    36.4    0.00  1388.1 13987.7    0.00 13987.7 13986.4    1.36
 2015 147    57       0   13880  142108       0  142108  142072    35.8    0.00  1388.0 13987.3    0.00 13987.3 13986.0    1.34
 2015 148    58       0   13880  142102       0  142102  142067    35.1    0.00  1388.0 13986.8    0.00 13986.8 13985.5    1.33
 2015 149    59       0   13879  142096       0  142096  142062    34.5    0.00  1387.9 13986.3    0.00 13986.3 13984.9    1.31
 2015 150    60       0   13879  142090       0  142090  142056    33.9    0.00  1387.9 13985.7    0.00 13985.7 13984.4    1.30
 2015 151    61       0   13878  142084       0  142084  142051    33.3    0.00  1387.8 13985.1    0.00 13985.1 13983.9    1.28
 2015 152    62       0   13877  142078       0  142078  142046    32.8    0.00  1387.7 13984.6    0.00 13984.6 13983.3    1.27
 2015 153    63       0   13877  142073       0  142073  142041    32.4    0.00  1387.7 13984.1    0.00 13984.1 13982.9    1.26
 2015 154    64       0   13876  142068       0  142068  142036    32.0    0.00  1387.6 13983.6    0.00 13983.6 13982.4    1.25
 2015 155    65       0   13876  142062       0  142062  142030    31.6    0.00  1387.6 13983.1    0.00 13983.1 13981.8    1.23
 2015 156    66       0   13875  142056       0  142056  142025    31.2    0.00  1387.5 13982.5    0.00 13982.5 13981.3    1.22
 2015 157    67       0   13874  142050       0  142050  142019    30.8    0.00  1387.4 13981.9    0.00 13981.9 13980.7    1.21
 2015 158    68       0   13873  142043       0  142043  142012    30.3    0.00  1387.3 13981.3    0.00 13981.3 13980.1    1.20
 2015 159    69       0   13873  142036       0  142036  142006    29.9    0.00  1387.3 13980.6    0.00 13980.6 13979.4    1.19
 2015 160    70       0   13872  142028       0  142028  141999    29.6    0.00  1387.2 13979.9    0.00 13979.9 13978.7    1.18
 2015 161    71       0   13871  142020       0  142020  141991    29.3    0.00  1387.1 13979.1    0.00 13979.1 13977.9    1.17
 2015 162    72       0   13870  142012       0  142012  141983    29.1    0.00  1387.0 13978.3    0.00 13978.3 13977.1    1.16
 2015 163    73       0   13869  142004       0  142004  141975    28.4    0.00  1386.9 13977.6    0.00 13977.6 13976.4    1.14
 2015 164    74       0   13868  141997       0  141997  141968    28.4    0.00  1386.8 13976.8    0.00 13976.8 13975.7    1.14
 2015 165    75       0   13868  141990       0  141990  141962    28.3    0.00  1386.8 13976.2    0.00 13976.2 13975.1    1.13
 2015 166    76       0   13867  141984       0  141984  141955    28.4    0.00  1386.7 13975.6    0.00 13975.6 13974.4    1.14
 2015 167    77       0   13866  141979       0  141979  141950    28.6    0.00  1386.6 13975.1    0.00 13975.1 13973.9    1.14
 2015 168    78       0   13866  141973       0  141973  141944    28.8    0.00  1386.6 13974.5    0.00 13974.5 13973.3    1.15
 2015 169    79       0   13865  141966       0  141966  141937    29.1    0.00  1386.5 13973.8    0.00 13973.8 13972.7    1.16
 2015 170    80       0   13864  141960       0  141960  141931    29.5    0.00  1386.4 13973.2    0.00 13973.2 13972.0    1.17
 2015 171    81       0   13863  141954       0  141954  141924    29.9    0.00  1386.3 13972.5    0.00 13972.5 13971.4    1.18
 2015 172    82       0   13863  141948       0  141948  141917    30.5    0.00  1386.3 13971.9    0.00 13971.9 13970.7    1.20
 2015 173    83       0   13862  141941       0  141941  141910    31.1    0.00  1386.2 13971.1    0.00 13971.1 13969.9    1.22
 2015 174    84       0   13861  141934       0  141934  141902    31.9    0.00  1386.1 13970.4    0.00 13970.4 13969.2    1.24
 2015 175    85       0   13860  141927       0  141927  141895    32.8    0.00  1386.0 13969.7    0.00 13969.7 13968.4    1.26
 2015 176    86       0   13859  141921       0  141921  141887    33.7    0.00  1385.9 13969.0    0.00 13969.0 13967.7    1.29
 2015 177    87       0   13858  141914       0  141914  141879    34.7    0.00  1385.8 13968.3    0.00 13968.3 13966.9    1.32
 2015 178    88       0   13857  141907       0  141907  141872    35.6    0.00  1385.7 13967.5    0.00 13967.5 13966.2    1.34
 2015 179    89       0   13857  141901       0  141901  141865    36.6    0.00  1385.7 13966.9    0.00 13966.9 13965.5    1.38
 2015 180    90       0   13856  141895       0  141895  141857    37.9    0.00  1385.6 13966.2    0.00 13966.2 13964.8    1.42
 2015 181    91       0   13855  141889       0  141889  141850    39.4    0.00  1385.5 13965.5    0.00 13965.5 13964.0    1.47
 2015 182    92       0   13854  141884       0  141884  141843    41.0    0.00  1385.4 13964.9    0.00 13964.9 13963.4    1.51
 2015 183    93       0   13853  141879       0  141879  141836    42.6    0.00  1385.3 13964.3    0.00 13964.3 13962.7    1.56
 2015 184    94       0   13853  141874       0  141874  141830    44.1    0.00  1385.3 13963.7    0.00 13963.7 13962.1    1.60
 2015 185    95       0   13852  141869       0  141869  141824    45.6    0.00  1385.2 13963.1    0.00 13963.1 13961.4    1.65
 2015 186    96       0   13851  141864       0  141864  141817    47.0    0.00  1385.1 13962.5    0.00 13962.5 13960.8    1.69
 2015 187    97       0   13850  141859       0  141859  141811    48.5    0.00  1385.0 13961.9    0.00 13961.9 13960.2    1.74
 2015 188    98       0   13850  141855       0  141855  141805    50.0    0.00  1385.0 13961.4    0.00 13961.4 13959.6    1.79
 2015 189    99       0   13849  141850       0  141850  141798    51.4    0.00  1384.9 13960.8    0.00 13960.8 13958.9    1.83
 2015 190   100       0   13848  141845       0  141845  141792    53.1    0.00  1384.8 13960.2    0.00 13960.2 13958.3    1.89
 2015 191   101       0   13847  141841       0  141841  141786    55.1    0.00  1384.7 13959.7    0.00 13959.7 13957.7    1.95
 2015 192   102       0   13847  141838       0  141838  141781    57.2    0.00  1384.7 13959.2    0.00 13959.2 13957.2    2.02
 2015 193   103       0   13846  141834       0  141834  141775    59.3    0.00  1384.6 13958.7    0.00 13958.7 13956.7    2.08
 2015 194   104       0   13845  141831       0  141831  141769    61.6    0.00  1384.5 13958.2    0.00 13958.2 13956.1    2.15
 2015 195   105       0   13845  141826       0  141826  141762    63.4    0.00  1384.5 13957.6    0.00 13957.6 13955.4    2.21
 2015 196   106       0   13844  141820       0  141820  141755    65.1    0.00  1384.4 13957.0    0.00 13957.0 13954.7    2.26
 2015 197   107       0   13843  141811       0  141811  141748    63.4    0.00  1384.3 13956.2    0.00 13956.2 13954.0    2.23
 2015 198   108       0   13842  141806       0  141806  141740    65.2    0.00  1384.2 13955.5    0.00 13955.5 13953.3    2.29
 2015 199   109       0   13841  141800       0  141800  141733    66.9    0.00  1384.1 13954.9    0.00 13954.9 13952.5    2.34
 2015 200   110       0   13840  141795       0  141795  141726    68.8    0.00  1384.0 13954.3    0.00 13954.3 13951.9    2.40
 2015 201   111       0   13839  141790       0  141790  141720    70.7    0.00  1383.9 13953.7    0.00 13953.7 13951.2    2.46
 2015 202   112       0   13838  141786       0  141786  141713    72.8    0.00  1383.8 13953.1    0.00 13953.1 13950.6    2.53
 2015 203   113       0   13837  141778       0  141778  141707    71.5    0.00  1383.7 13952.5    0.00 13952.5 13949.9    2.50
 2015 204   114       0   13837  141772       0  141772  141701    70.5    0.00  1383.7 13951.9    0.00 13951.9 13949.4    2.48
 2015 205   115       0   13836  141765       0  141765  141695    69.3    0.00  1383.6 13951.3    0.00 13951.3 13948.8    2.45
 2015 206   116       0   13835  141757       0  141757  141689    67.9    0.00  1383.5 13950.6    0.00 13950.6 13948.2    2.42
 2015 207   117       0   13834  141749       0  141749  141683    66.7    0.00  1383.4 13950.0    0.00 13950.0 13947.6    2.39
 2015 208   118       0   13833  141742       0  141742  141676    65.5    0.00  1383.3 13949.3    0.00 13949.3 13946.9    2.37
 2015 209   119       0   13832  141734       0  141734  141669    64.2    0.00  1383.2 13948.6    0.00 13948.6 13946.3    2.34
 2015 210   120       0   13832  141726       0  141726  141663    62.9    0.00  1383.2 13947.9    0.00 13947.9 13945.6    2.30
 2015 211   121       0   13831  141718       0  141718  141656    61.6    0.00  1383.1 13947.3    0.00 13947.3 13945.0    2.27
 2015 212   122       0   13830  141710       0  141710  141650    60.3    0.00  1383.0 13946.6    0.00 13946.6 13944.3    2.24
 2015 213   123       0   13829  141702       0  141702  141643    59.2    0.00  1382.9 13945.9    0.00 13945.9 13943.7    2.21
 2015 214   124       0   13828  141695       0  141695  141637    58.1    0.00  1382.8 13945.2    0.00 13945.2 13943.0    2.18
 2015 215   125       0   13827  141687       0  141687  141630    57.2    0.00  1382.7 13944.6    0.00 13944.6 13942.4    2.16
 2015 216   126       0   13826  141680       0  141680  141624    56.4    0.00  1382.6 13943.9    0.00 13943.9 13941.8    2.13
 2015 217   127       0   13826  141673       0  141673  141618    55.4    0.00  1382.6 13943.3    0.00 13943.3 13941.2    2.11
 2015 218   128       0   13825  141666       0  141666  141611    54.4    0.00  1382.5 13942.6    0.00 13942.6 13940.6    2.08
 2015 219   129       0   13824  141659       0  141659  141605    53.4    0.00  1382.4 13942.0    0.00 13942.0 13939.9    2.05
 2015 220   130       0   13823  141652       0  141652  141599    52.5    0.00  1382.3 13941.4    0.00 13941.4 13939.3    2.02
 2015 221   131       0   13822  141645       0  141645  141593    51.6    0.00  1382.2 13940.8    0.00 13940.8 13938.8    2.00
 2015 222   132       0   13822  141637       0  141637  141587    50.7    0.00  1382.2 13940.1    0.00 13940.1 13938.1    1.97
 2015 223   133       0   13821  141630       0  141630  141580    49.7    0.00  1382.1 13939.4    0.00 13939.4 13937.5    1.95
 2015 224   134       0   13820  141626       0  141626  141573    52.4    0.00  1382.0 13938.8    0.00 13938.8 13936.8    2.01
 2015 225   135       0   13819  141622       0  141622  141567    55.0    0.00  1381.9 13938.3    0.00 13938.3 13936.2    2.08
 2015 226   136       0   13818  141618       0  141618  141560    57.8    0.00  1381.8 13937.7    0.00 13937.7 13935.5    2.15
 2015 227   137       0   13818  141615       0  141615  141554    60.5    0.00  1381.8 13937.2    0.00 13937.2 13934.9    2.23
 2015 228   138       0   13817  141611       0  141611  141548    63.3    0.00  1381.7 13936.6    0.00 13936.6 13934.3    2.31
 2015 229   139       0   13816  141608       0  141608  141542    66.1    0.00  1381.6 13936.1    0.00 13936.1 13933.7    2.39
 2015 230   140       0   13815  141605       0  141605  141536    68.7    0.00  1381.5 13935.6    0.00 13935.6 13933.1    2.46
 2015 231   141       0   13815  141601       0  141601  141530    71.2    0.00  1381.5 13935.1    0.00 13935.1 13932.6    2.53
 2015 232   142       0   13814  141598       0  141598  141524    73.5    0.00  1381.4 13934.6    0.00 13934.6 13932.0    2.60
 2015 233   143       0   13813  141594       0  141594  141518    75.6    0.00  1381.3 13934.1    0.00 13934.1 13931.4    2.66
 2015 234   144       0   13813  141591       0  141591  141513    77.7    0.00  1381.3 13933.6    0.00 13933.6 13930.9    2.73
 2015 235   145       0   13812  141587       0  141587  141507    79.7    0.00  1381.2 13933.1    0.00 13933.1 13930.3    2.80
 2015 236   146       0   13811  141583       0  141583  141501    81.7    0.00  1381.1 13932.6    0.00 13932.6 13929.7    2.86
 2015 237   147       0   13810  141579       0  141579  141495    83.8    0.00  1381.0 13932.1    0.00 13932.1 13929.1    2.93
 2015 238   148       0   13810  141575       0  141575  141489    86.1    0.00  1381.0 13931.6    0.00 13931.6 13928.6    3.00
 2015 239   149       0   13809  141572       0  141572  141484    88.4    0.00  1380.9 13931.1    0.00 13931.1 13928.0    3.08
 2015 240   150       0   13808  141569       0  141569  141478    90.7    0.00  1380.8 13930.6    0.00 13930.6 13927.5    3.15
 2015 241   151       0   13808  141566       0  141566  141473    93.0    0.00  1380.8 13930.1    0.00 13930.1 13926.9    3.22
 2015 242   152       0   13807  141562       0  141562  141467    94.9    0.00  1380.7 13929.6    0.00 13929.6 13926.4    3.29
 2015 243   153       0   13807  141558       0  141558  141462    96.7    0.00  1380.7 13929.2    0.00 13929.2 13925.8    3.35
 2015 244   154       0   13806  141554       0  141554  141456    98.3    0.00  1380.6 13928.6    0.00 13928.6 13925.2    3.41
 2015 245   155       0   13805  141550       0  141550  141450    99.9    0.00  1380.5 13928.1    0.00 13928.1 13924.6    3.46
 2015 246   156       0   13804  141545       0  141545  141443   101.4    0.00  1380.4 13927.5    0.00 13927.5 13924.0    3.52
 2015 247   157       0   13804  141540       0  141540  141437   102.9    0.00  1380.4 13926.9    0.00 13926.9 13923.4    3.58
 2015 248   158       0   13803  141534       0  141534  141429   104.3    0.00  1380.3 13926.3    0.00 13926.3 13922.6    3.63
 2015 249   159       0   13802  141528       0  141528  141422   105.8    0.00  1380.2 13925.6    0.00 13925.6 13921.9    3.69
 2015 250   160       0   13801  141522       0  141522  141415   107.2    0.00  1380.1 13925.0    0.00 13925.0 13921.2    3.74
 2015 251   161       0   13800  141516       0  141516  141408   108.5    0.00  1380.0 13924.3    0.00 13924.3 13920.5    3.79
 2015 252   162       0   13799  141511       0  141511  141401   110.0    0.00  1379.9 13923.7    0.00 13923.7 13919.8    3.84
 2015 253   163       0   13799  141506       0  141506  141394   111.3    0.00  1379.9 13923.1    0.00 13923.1 13919.2    3.90
 2015 254   164       0   13798  141500       0  141500  141388   112.3    0.00  1379.8 13922.5    0.00 13922.5 13918.5    3.94
 2015 255   165       0   13797  141495       0  141495  141382   113.4    0.00  1379.7 13921.9    0.00 13921.9 13917.9    3.99
 2015 256   166       0   13797  141491       0  141491  141376   114.6    0.00  1379.7 13921.4    0.00 13921.4 13917.4    4.03
 2015 257   167       0   13796  141486       0  141486  141370   115.8    0.00  1379.6 13920.9    0.00 13920.9 13916.8    4.08
 2015 258   168       0   13795  141482       0  141482  141365   117.1    0.00  1379.5 13920.4    0.00 13920.4 13916.3    4.13
 2015 259   169       0   13795  141477       0  141477  141359   118.4    0.00  1379.5 13919.9    0.00 13919.9 13915.7    4.18
 2015 260   170       0   13794  141468       0  141468  141353   115.6    0.00  1379.4 13919.2    0.00 13919.2 13915.1    4.12
 2015 261   171       0   13793  141459       0  141459  141346   112.9    0.00  1379.3 13918.5    0.00 13918.5 13914.4    4.06
 2015 262   172       0   13792  141450       0  141450  141339   110.4    0.00  1379.2 13917.8    0.00 13917.8 13913.8    4.00
 2015 263   173       0   13792  141441       0  141441  141333   108.3    0.00  1379.2 13917.1    0.00 13917.1 13913.2    3.96
 2015 264   174       0   13791  141434       0  141434  141328   106.4    0.00  1379.1 13916.5    0.00 13916.5 13912.6    3.91
 2015 265   175       0   13791  141427       0  141427  141322   104.8    0.00  1379.1 13916.0    0.00 13916.0 13912.1    3.87
 2015 266   176       0   13790  141421       0  141421  141317   103.3    0.00  1379.0 13915.4    0.00 13915.4 13911.6    3.84
 2015 267   177       0   13789  141414       0  141414  141312   101.6    0.00  1378.9 13914.9    0.00 13914.9 13911.1    3.79
 2015 268   178       0   13789  141406       0  141406  141306    99.8    0.00  1378.9 13914.3    0.00 13914.3 13910.5    3.75
 2015 269   179       0   13788  141398       0  141398  141300    97.9    0.00  1378.8 13913.6    0.00 13913.6 13909.9    3.70
 2015 270   180       0   13787  141390       0  141390  141294    95.7    0.00  1378.7 13913.0    0.00 13913.0 13909.3    3.64
 2015 271   181       0   13787  141381       0  141381  141288    93.5    0.00  1378.7 13912.3    0.00 13912.3 13908.7    3.58
 2015 272   182       0   13786  141372       0  141372  141281    91.1    0.00  1378.6 13911.5    0.00 13911.5 13908.0    3.52
 2015 273   183       0   13785  141363       0  141363  141274    89.0    0.00  1378.5 13910.8    0.00 13910.8 13907.4    3.46
 2015 274   184       0   13785  141355       0  141355  141268    86.9    0.00  1378.5 13910.1    0.00 13910.1 13906.7    3.40
 2015 275   185       0   13784  141347       0  141347  141262    85.1    0.00  1378.4 13909.5    0.00 13909.5 13906.2    3.35
 2015 276   186       0   13784  141340       0  141340  141257    83.6    0.00  1378.4 13908.9    0.00 13908.9 13905.6    3.31
 2015 277   187       0   13783  141334       0  141334  141252    82.3    0.00  1378.3 13908.4    0.00 13908.4 13905.2    3.27
 2015 278   188       0   13783  141329       0  141329  141248    81.2    0.00  1378.3 13908.0    0.00 13908.0 13904.7    3.24
 2015 279   189       0   13782  141324       0  141324  141243    80.2    0.00  1378.2 13907.5    0.00 13907.5 13904.3    3.20
 2015 280   190       0   13782  141318       0  141318  141239    79.1    0.00  1378.2 13907.1    0.00 13907.1 13903.9    3.17
 2015 281   191       0   13781  141312       0  141312  141234    78.0    0.00  1378.1 13906.6    0.00 13906.6 13903.4    3.14
 2015 282   192       0   13781  141306       0  141306  141229    76.8    0.00  1378.1 13906.0    0.00 13906.0 13902.9    3.10
 2015 283   193       0   13780  141299       0  141299  141223    75.7    0.00  1378.0 13905.4    0.00 13905.4 13902.3    3.07
 2015 284   194       0   13780  141292       0  141292  141217    74.6    0.00  1378.0 13904.8    0.00 13904.8 13901.8    3.03
 2015 285   195       0   13779  141284       0  141284  141211    73.4    0.00  1377.9 13904.1    0.00 13904.1 13901.1    2.99
 2015 286   196       0   13778  141277       0  141277  141205    72.3    0.00  1377.8 13903.5    0.00 13903.5 13900.5    2.96
 2015 287   197       0   13778  141270       0  141270  141199    71.3    0.00  1377.8 13902.9    0.00 13902.9 13899.9    2.93
 2015 288   198       0   13777  141263       0  141263  141193    70.3    0.00  1377.7 13902.2    0.00 13902.2 13899.4    2.89
