*SOIL INORGANIC N BALANCE

*DSSAT Cropping System Model Ver. 4.6.1.000 -release      APR 16, 2018; 14:44:24
                                                                                
*RUN   1        : Sim                       MZCER046 UNME2015    1              
 MODEL          : MZCER046 - Maize                                              
 EXPERIMENT     : UNME2015 MZ                                                   
 DATA PATH      :                                                               
 TREATMENT  1   : Sim                       MZCER046                            
  


!                                        INITIAL Year/Doy      FINAL Year/Doy
!                                                2015/091            2015/288
!SOIL INORGANIC N BALANCE                       -----------kg N/ha-----------

!   Soil NO3                                        18.60               28.51
!   Soil NH4                                         2.07                1.93
!   Soil Urea                                        0.00                0.00

!   Added to / Removed from Soil:
!   Fertilizer N                                   150.00
!   Mineralized N                                  112.81
!   Leached NO3                                                          1.17
!   N Denitrified                                                        5.19
!   N Uptake From Soil                                                 243.17
!   Ammonia volatilization                                               3.51
!   N immobilized                                                        0.00

!   Total N balance                                283.48              283.48
!   Balance                                                             0.000
